$ Spice netlist generated by v2lvs
$ v2020.1_25.14    Mon Feb 3 16:40:08 PST 2020
*.BUSDELIMITER [ 

.SUBCKT registerNbits clk_CTSPP_1 VDD VSS clk reset en inp[31] inp[30] inp[29] 
+ inp[28] inp[27] inp[26] inp[25] inp[24] inp[23] inp[22] inp[21] inp[20] 
+ inp[19] inp[18] inp[17] inp[16] inp[15] inp[14] inp[13] inp[12] inp[11] 
+ inp[10] inp[9] inp[8] inp[7] inp[6] inp[5] inp[4] inp[3] inp[2] inp[1] inp[0] 
+ out[31] out[30] out[29] out[28] out[27] out[26] out[25] out[24] out[23] 
+ out[22] out[21] out[20] out[19] out[18] out[17] out[16] out[15] out[14] 
+ out[13] out[12] out[11] out[10] out[9] out[8] out[7] out[6] out[5] out[4] 
+ out[3] out[2] out[1] out[0] 
Xi_0_33 AND2_X1 $PINS ZN=n_33 A1=n_0_0 A2=inp[31] VDD=VDD VSS=VSS 
Xi_0_32 AND2_X1 $PINS ZN=n_32 A1=n_0_0 A2=inp[30] VDD=VDD VSS=VSS 
Xi_0_31 AND2_X1 $PINS ZN=n_31 A1=n_0_0 A2=inp[29] VDD=VDD VSS=VSS 
Xi_0_30 AND2_X1 $PINS ZN=n_30 A1=n_0_0 A2=inp[28] VDD=VDD VSS=VSS 
Xi_0_29 AND2_X1 $PINS ZN=n_29 A1=n_0_0 A2=inp[27] VDD=VDD VSS=VSS 
Xi_0_28 AND2_X1 $PINS ZN=n_28 A1=n_0_0 A2=inp[26] VDD=VDD VSS=VSS 
Xi_0_27 AND2_X1 $PINS ZN=n_27 A1=n_0_0 A2=inp[25] VDD=VDD VSS=VSS 
Xi_0_26 AND2_X1 $PINS ZN=n_26 A1=n_0_0 A2=inp[24] VDD=VDD VSS=VSS 
Xi_0_25 AND2_X1 $PINS ZN=n_25 A1=n_0_0 A2=inp[23] VDD=VDD VSS=VSS 
Xi_0_24 AND2_X1 $PINS ZN=n_24 A1=n_0_0 A2=inp[22] VDD=VDD VSS=VSS 
Xi_0_23 AND2_X1 $PINS ZN=n_23 A1=n_0_0 A2=inp[21] VDD=VDD VSS=VSS 
Xi_0_22 AND2_X1 $PINS ZN=n_22 A1=n_0_0 A2=inp[20] VDD=VDD VSS=VSS 
Xi_0_21 AND2_X1 $PINS ZN=n_21 A1=n_0_0 A2=inp[19] VDD=VDD VSS=VSS 
Xi_0_20 AND2_X1 $PINS ZN=n_20 A1=n_0_0 A2=inp[18] VDD=VDD VSS=VSS 
Xi_0_19 AND2_X1 $PINS ZN=n_19 A1=n_0_0 A2=inp[17] VDD=VDD VSS=VSS 
Xi_0_18 AND2_X1 $PINS ZN=n_18 A1=n_0_0 A2=inp[16] VDD=VDD VSS=VSS 
Xi_0_17 AND2_X1 $PINS ZN=n_17 A1=n_0_0 A2=inp[15] VDD=VDD VSS=VSS 
Xi_0_16 AND2_X1 $PINS ZN=n_16 A1=n_0_0 A2=inp[14] VDD=VDD VSS=VSS 
Xi_0_15 AND2_X1 $PINS ZN=n_15 A1=n_0_0 A2=inp[13] VDD=VDD VSS=VSS 
Xi_0_14 AND2_X1 $PINS ZN=n_14 A1=n_0_0 A2=inp[12] VDD=VDD VSS=VSS 
Xi_0_13 AND2_X1 $PINS ZN=n_13 A1=n_0_0 A2=inp[11] VDD=VDD VSS=VSS 
Xi_0_12 AND2_X1 $PINS ZN=n_12 A1=n_0_0 A2=inp[10] VDD=VDD VSS=VSS 
Xi_0_11 AND2_X1 $PINS ZN=n_11 A1=n_0_0 A2=inp[9] VDD=VDD VSS=VSS 
Xi_0_10 AND2_X1 $PINS ZN=n_10 A1=n_0_0 A2=inp[8] VDD=VDD VSS=VSS 
Xi_0_9 AND2_X1 $PINS ZN=n_9 A1=n_0_0 A2=inp[7] VDD=VDD VSS=VSS 
Xi_0_8 AND2_X1 $PINS ZN=n_8 A1=n_0_0 A2=inp[6] VDD=VDD VSS=VSS 
Xi_0_7 AND2_X1 $PINS ZN=n_7 A1=n_0_0 A2=inp[5] VDD=VDD VSS=VSS 
Xi_0_6 AND2_X1 $PINS ZN=n_6 A1=n_0_0 A2=inp[4] VDD=VDD VSS=VSS 
Xi_0_5 AND2_X1 $PINS ZN=n_5 A1=n_0_0 A2=inp[3] VDD=VDD VSS=VSS 
Xi_0_4 AND2_X1 $PINS ZN=n_4 A1=n_0_0 A2=inp[2] VDD=VDD VSS=VSS 
Xi_0_3 AND2_X1 $PINS ZN=n_3 A1=n_0_0 A2=inp[1] VDD=VDD VSS=VSS 
Xi_0_2 AND2_X1 $PINS ZN=n_2 A1=n_0_0 A2=inp[0] VDD=VDD VSS=VSS 
Xi_0_1 INV_X1 $PINS ZN=n_0_0 A=reset VDD=VDD VSS=VSS 
Xi_0_0 OR2_X1 $PINS ZN=n_1 A1=en A2=reset VDD=VDD VSS=VSS 
Xout_reg[0] DFF_X1 $PINS Q=out[0] CK=CTS_n2 D=n_2 VDD=VDD VSS=VSS 
Xout_reg[1] DFF_X1 $PINS Q=out[1] CK=CTS_n2 D=n_3 VDD=VDD VSS=VSS 
Xout_reg[2] DFF_X1 $PINS Q=out[2] CK=CTS_n2 D=n_4 VDD=VDD VSS=VSS 
Xout_reg[3] DFF_X1 $PINS Q=out[3] CK=CTS_n2 D=n_5 VDD=VDD VSS=VSS 
Xout_reg[4] DFF_X1 $PINS Q=out[4] CK=CTS_n2 D=n_6 VDD=VDD VSS=VSS 
Xout_reg[5] DFF_X1 $PINS Q=out[5] CK=CTS_n2 D=n_7 VDD=VDD VSS=VSS 
Xout_reg[6] DFF_X1 $PINS Q=out[6] CK=CTS_n2 D=n_8 VDD=VDD VSS=VSS 
Xout_reg[7] DFF_X1 $PINS Q=out[7] CK=CTS_n2 D=n_9 VDD=VDD VSS=VSS 
Xout_reg[8] DFF_X1 $PINS Q=out[8] CK=CTS_n2 D=n_10 VDD=VDD VSS=VSS 
Xout_reg[9] DFF_X1 $PINS Q=out[9] CK=CTS_n2 D=n_11 VDD=VDD VSS=VSS 
Xout_reg[10] DFF_X1 $PINS Q=out[10] CK=CTS_n2 D=n_12 VDD=VDD VSS=VSS 
Xout_reg[11] DFF_X1 $PINS Q=out[11] CK=CTS_n2 D=n_13 VDD=VDD VSS=VSS 
Xout_reg[12] DFF_X1 $PINS Q=out[12] CK=CTS_n2 D=n_14 VDD=VDD VSS=VSS 
Xout_reg[13] DFF_X1 $PINS Q=out[13] CK=CTS_n2 D=n_15 VDD=VDD VSS=VSS 
Xout_reg[14] DFF_X1 $PINS Q=out[14] CK=CTS_n2 D=n_16 VDD=VDD VSS=VSS 
Xout_reg[15] DFF_X1 $PINS Q=out[15] CK=CTS_n2 D=n_17 VDD=VDD VSS=VSS 
Xout_reg[16] DFF_X1 $PINS Q=out[16] CK=CTS_n2 D=n_18 VDD=VDD VSS=VSS 
Xout_reg[17] DFF_X1 $PINS Q=out[17] CK=CTS_n2 D=n_19 VDD=VDD VSS=VSS 
Xout_reg[18] DFF_X1 $PINS Q=out[18] CK=CTS_n2 D=n_20 VDD=VDD VSS=VSS 
Xout_reg[19] DFF_X1 $PINS Q=out[19] CK=CTS_n2 D=n_21 VDD=VDD VSS=VSS 
Xout_reg[20] DFF_X1 $PINS Q=out[20] CK=CTS_n2 D=n_22 VDD=VDD VSS=VSS 
Xout_reg[21] DFF_X1 $PINS Q=out[21] CK=CTS_n2 D=n_23 VDD=VDD VSS=VSS 
Xout_reg[22] DFF_X1 $PINS Q=out[22] CK=CTS_n2 D=n_24 VDD=VDD VSS=VSS 
Xout_reg[23] DFF_X1 $PINS Q=out[23] CK=CTS_n2 D=n_25 VDD=VDD VSS=VSS 
Xout_reg[24] DFF_X1 $PINS Q=out[24] CK=CTS_n2 D=n_26 VDD=VDD VSS=VSS 
Xout_reg[25] DFF_X1 $PINS Q=out[25] CK=CTS_n2 D=n_27 VDD=VDD VSS=VSS 
Xout_reg[26] DFF_X1 $PINS Q=out[26] CK=CTS_n2 D=n_28 VDD=VDD VSS=VSS 
Xout_reg[27] DFF_X1 $PINS Q=out[27] CK=CTS_n2 D=n_29 VDD=VDD VSS=VSS 
Xout_reg[28] DFF_X1 $PINS Q=out[28] CK=CTS_n2 D=n_30 VDD=VDD VSS=VSS 
Xout_reg[29] DFF_X1 $PINS Q=out[29] CK=CTS_n2 D=n_31 VDD=VDD VSS=VSS 
Xout_reg[30] DFF_X1 $PINS Q=out[30] CK=CTS_n2 D=n_32 VDD=VDD VSS=VSS 
Xout_reg[31] DFF_X1 $PINS Q=out[31] CK=CTS_n2 D=n_33 VDD=VDD VSS=VSS 
Xclk_gate_out_reg CLKGATETST_X8 $PINS GCK=CTS_n3 CK=clk_CTSPP_1 E=n_1 SE=VSS 
+ VDD=VDD VSS=VSS 
XCTS_L3_c3 CLKBUF_X3 $PINS Z=CTS_n2 A=CTS_n3 VDD=VDD VSS=VSS 
.ENDS

.SUBCKT CLA_4bit VDD VSS x[3] x[2] x[1] x[0] y[3] y[2] y[1] y[0] cO s[3] s[2] 
+ s[1] s[0] p g 
Xi_0_10 XNOR2_X1 $PINS ZN=n_0_7 A=x[3] B=n_0_2 VDD=VDD VSS=VSS 
Xi_0_9 XNOR2_X1 $PINS ZN=s[3] A=y[3] B=n_0_7 VDD=VDD VSS=VSS 
Xi_0_8 OAI22_X1 $PINS ZN=n_0_6 A1=y[3] A2=x[3] B1=x[2] B2=y[2] VDD=VDD VSS=VSS 
Xi_0_7 OAI22_X1 $PINS ZN=n_0_5 A1=y[1] A2=x[1] B1=x[0] B2=y[0] VDD=VDD VSS=VSS 
Xi_0_6 NOR2_X1 $PINS ZN=p A1=n_0_6 A2=n_0_5 VDD=VDD VSS=VSS 
Xi_0_5 NAND2_X1 $PINS ZN=n_0_4 A1=y[3] A2=x[3] VDD=VDD VSS=VSS 
Xi_0_4 AOI22_X1 $PINS ZN=n_0_3 A1=y[2] A2=x[2] B1=x[0] B2=y[0] VDD=VDD VSS=VSS 
Xi_0_3 OAI21_X1 $PINS ZN=g A=n_0_4 B1=n_0_3 B2=n_0_6 VDD=VDD VSS=VSS 
Xi_0_2 FA_X1 $PINS CO=n_0_2 S=s[2] A=y[2] B=x[2] CI=n_0_1 VDD=VDD VSS=VSS 
Xi_0_1 FA_X1 $PINS CO=n_0_1 S=s[1] A=y[1] B=x[1] CI=n_0_0 VDD=VDD VSS=VSS 
Xi_0_0 FA_X1 $PINS CO=n_0_0 S=s[0] A=cO B=x[0] CI=y[0] VDD=VDD VSS=VSS 
.ENDS

.SUBCKT CLA_4bit__0_146 VDD VSS x[3] x[2] x[1] x[0] y[3] y[2] y[1] y[0] cO s[3] 
+ s[2] s[1] s[0] p g 
Xi_0_10 XNOR2_X1 $PINS ZN=n_0_7 A=x[3] B=n_0_2 VDD=VDD VSS=VSS 
Xi_0_9 XNOR2_X1 $PINS ZN=s[3] A=y[3] B=n_0_7 VDD=VDD VSS=VSS 
Xi_0_8 OAI22_X1 $PINS ZN=n_0_6 A1=y[3] A2=x[3] B1=x[2] B2=y[2] VDD=VDD VSS=VSS 
Xi_0_7 OAI22_X1 $PINS ZN=n_0_5 A1=y[1] A2=x[1] B1=x[0] B2=y[0] VDD=VDD VSS=VSS 
Xi_0_6 NOR2_X1 $PINS ZN=p A1=n_0_6 A2=n_0_5 VDD=VDD VSS=VSS 
Xi_0_5 NAND2_X1 $PINS ZN=n_0_4 A1=y[3] A2=x[3] VDD=VDD VSS=VSS 
Xi_0_4 AOI22_X1 $PINS ZN=n_0_3 A1=y[2] A2=x[2] B1=x[0] B2=y[0] VDD=VDD VSS=VSS 
Xi_0_3 OAI21_X1 $PINS ZN=g A=n_0_4 B1=n_0_3 B2=n_0_6 VDD=VDD VSS=VSS 
Xi_0_2 FA_X1 $PINS CO=n_0_2 S=s[2] A=y[2] B=x[2] CI=n_0_1 VDD=VDD VSS=VSS 
Xi_0_1 FA_X1 $PINS CO=n_0_1 S=s[1] A=y[1] B=x[1] CI=n_0_0 VDD=VDD VSS=VSS 
Xi_0_0 FA_X1 $PINS CO=n_0_0 S=s[0] A=cO B=x[0] CI=y[0] VDD=VDD VSS=VSS 
.ENDS

.SUBCKT CLA_4bit__0_138 VDD VSS x[3] x[2] x[1] x[0] y[3] y[2] y[1] y[0] cO s[3] 
+ s[2] s[1] s[0] p g 
Xi_0_10 XNOR2_X1 $PINS ZN=n_0_7 A=x[3] B=n_0_2 VDD=VDD VSS=VSS 
Xi_0_9 XNOR2_X1 $PINS ZN=s[3] A=y[3] B=n_0_7 VDD=VDD VSS=VSS 
Xi_0_8 OAI22_X1 $PINS ZN=n_0_6 A1=y[3] A2=x[3] B1=x[2] B2=y[2] VDD=VDD VSS=VSS 
Xi_0_7 OAI22_X1 $PINS ZN=n_0_5 A1=y[1] A2=x[1] B1=x[0] B2=y[0] VDD=VDD VSS=VSS 
Xi_0_6 NOR2_X1 $PINS ZN=p A1=n_0_6 A2=n_0_5 VDD=VDD VSS=VSS 
Xi_0_5 NAND2_X1 $PINS ZN=n_0_4 A1=y[3] A2=x[3] VDD=VDD VSS=VSS 
Xi_0_4 AOI22_X1 $PINS ZN=n_0_3 A1=y[2] A2=x[2] B1=x[0] B2=y[0] VDD=VDD VSS=VSS 
Xi_0_3 OAI21_X1 $PINS ZN=g A=n_0_4 B1=n_0_3 B2=n_0_6 VDD=VDD VSS=VSS 
Xi_0_2 FA_X1 $PINS CO=n_0_2 S=s[2] A=y[2] B=x[2] CI=n_0_1 VDD=VDD VSS=VSS 
Xi_0_1 FA_X1 $PINS CO=n_0_1 S=s[1] A=y[1] B=x[1] CI=n_0_0 VDD=VDD VSS=VSS 
Xi_0_0 FA_X1 $PINS CO=n_0_0 S=s[0] A=cO B=x[0] CI=y[0] VDD=VDD VSS=VSS 
.ENDS

.SUBCKT CLA_4bit__0_130 VDD VSS x[3] x[2] x[1] x[0] y[3] y[2] y[1] y[0] cO s[3] 
+ s[2] s[1] s[0] p g 
Xi_0_10 XNOR2_X1 $PINS ZN=n_0_7 A=x[3] B=n_0_2 VDD=VDD VSS=VSS 
Xi_0_9 XNOR2_X1 $PINS ZN=s[3] A=y[3] B=n_0_7 VDD=VDD VSS=VSS 
Xi_0_8 OAI22_X1 $PINS ZN=n_0_6 A1=y[3] A2=x[3] B1=x[2] B2=y[2] VDD=VDD VSS=VSS 
Xi_0_7 OAI22_X1 $PINS ZN=n_0_5 A1=y[1] A2=x[1] B1=x[0] B2=y[0] VDD=VDD VSS=VSS 
Xi_0_6 NOR2_X1 $PINS ZN=p A1=n_0_6 A2=n_0_5 VDD=VDD VSS=VSS 
Xi_0_5 NAND2_X1 $PINS ZN=n_0_4 A1=y[3] A2=x[3] VDD=VDD VSS=VSS 
Xi_0_4 AOI22_X1 $PINS ZN=n_0_3 A1=y[2] A2=x[2] B1=x[0] B2=y[0] VDD=VDD VSS=VSS 
Xi_0_3 OAI21_X1 $PINS ZN=g A=n_0_4 B1=n_0_3 B2=n_0_6 VDD=VDD VSS=VSS 
Xi_0_2 FA_X1 $PINS CO=n_0_2 S=s[2] A=y[2] B=x[2] CI=n_0_1 VDD=VDD VSS=VSS 
Xi_0_1 FA_X1 $PINS CO=n_0_1 S=s[1] A=y[1] B=x[1] CI=n_0_0 VDD=VDD VSS=VSS 
Xi_0_0 FA_X1 $PINS CO=n_0_0 S=s[0] A=cO B=x[0] CI=y[0] VDD=VDD VSS=VSS 
.ENDS

.SUBCKT CLA_4bit__0_122 VDD VSS x[3] x[2] x[1] x[0] y[3] y[2] y[1] y[0] cO s[3] 
+ s[2] s[1] s[0] p g 
Xi_0_10 XNOR2_X1 $PINS ZN=n_0_7 A=x[3] B=n_0_2 VDD=VDD VSS=VSS 
Xi_0_9 XNOR2_X1 $PINS ZN=s[3] A=y[3] B=n_0_7 VDD=VDD VSS=VSS 
Xi_0_8 OAI22_X1 $PINS ZN=n_0_6 A1=y[3] A2=x[3] B1=x[2] B2=y[2] VDD=VDD VSS=VSS 
Xi_0_7 OAI22_X1 $PINS ZN=n_0_5 A1=y[1] A2=x[1] B1=x[0] B2=y[0] VDD=VDD VSS=VSS 
Xi_0_6 NOR2_X1 $PINS ZN=p A1=n_0_6 A2=n_0_5 VDD=VDD VSS=VSS 
Xi_0_5 NAND2_X1 $PINS ZN=n_0_4 A1=y[3] A2=x[3] VDD=VDD VSS=VSS 
Xi_0_4 AOI22_X1 $PINS ZN=n_0_3 A1=y[2] A2=x[2] B1=x[0] B2=y[0] VDD=VDD VSS=VSS 
Xi_0_3 OAI21_X1 $PINS ZN=g A=n_0_4 B1=n_0_3 B2=n_0_6 VDD=VDD VSS=VSS 
Xi_0_2 FA_X1 $PINS CO=n_0_2 S=s[2] A=y[2] B=x[2] CI=n_0_1 VDD=VDD VSS=VSS 
Xi_0_1 FA_X1 $PINS CO=n_0_1 S=s[1] A=y[1] B=x[1] CI=n_0_0 VDD=VDD VSS=VSS 
Xi_0_0 FA_X1 $PINS CO=n_0_0 S=s[0] A=cO B=x[0] CI=y[0] VDD=VDD VSS=VSS 
.ENDS

.SUBCKT CLA_4bit__0_114 VDD VSS x[3] x[2] x[1] x[0] y[3] y[2] y[1] y[0] cO s[3] 
+ s[2] s[1] s[0] p g 
Xi_0_8 XNOR2_X1 $PINS ZN=n_0_6 A=x[3] B=n_0_2 VDD=VDD VSS=VSS 
Xi_0_7 XNOR2_X1 $PINS ZN=s[3] A=y[3] B=n_0_6 VDD=VDD VSS=VSS 
Xi_0_6 NOR2_X1 $PINS ZN=n_0_5 A1=y[3] A2=x[3] VDD=VDD VSS=VSS 
Xi_0_5 OAI211_X1 $PINS ZN=n_0_4 A=y[0] B=x[0] C1=x[2] C2=y[2] VDD=VDD VSS=VSS 
Xi_0_4 AOI22_X1 $PINS ZN=n_0_3 A1=y[3] A2=x[3] B1=x[2] B2=y[2] VDD=VDD VSS=VSS 
Xi_0_3 AOI21_X1 $PINS ZN=g A=n_0_5 B1=n_0_3 B2=n_0_4 VDD=VDD VSS=VSS 
Xi_0_2 FA_X1 $PINS CO=n_0_2 S=s[2] A=y[2] B=x[2] CI=n_0_1 VDD=VDD VSS=VSS 
Xi_0_1 FA_X1 $PINS CO=n_0_1 S=s[1] A=y[1] B=x[1] CI=n_0_0 VDD=VDD VSS=VSS 
Xi_0_0 FA_X1 $PINS CO=n_0_0 S=s[0] A=VSS B=x[0] CI=y[0] VDD=VDD VSS=VSS 
.ENDS

.SUBCKT CLA_adder VDD VSS A[23] A[22] A[21] A[20] A[19] A[18] A[17] A[16] A[15] 
+ A[14] A[13] A[12] A[11] A[10] A[9] A[8] A[7] A[6] A[5] A[4] A[3] A[2] A[1] 
+ A[0] B[23] B[22] B[21] B[20] B[19] B[18] B[17] B[16] B[15] B[14] B[13] B[12] 
+ B[11] B[10] B[9] B[8] B[7] B[6] B[5] B[4] B[3] B[2] B[1] B[0] Cin Sum[23] 
+ Sum[22] Sum[21] Sum[20] Sum[19] Sum[18] Sum[17] Sum[16] Sum[15] Sum[14] 
+ Sum[13] Sum[12] Sum[11] Sum[10] Sum[9] Sum[8] Sum[7] Sum[6] Sum[5] Sum[4] 
+ Sum[3] Sum[2] Sum[1] Sum[0] Cout Overflow 
Xi_1_9 INV_X1 $PINS ZN=Cout A=n_1_4 VDD=VDD VSS=VSS 
Xi_1_8 AOI21_X1 $PINS ZN=n_1_4 A=n_8 B1=n_9 B2=n_13 VDD=VDD VSS=VSS 
Xi_1_7 INV_X1 $PINS ZN=n_13 A=n_1_3 VDD=VDD VSS=VSS 
Xi_1_6 AOI21_X1 $PINS ZN=n_1_3 A=n_6 B1=n_7 B2=n_12 VDD=VDD VSS=VSS 
Xi_1_5 INV_X1 $PINS ZN=n_12 A=n_1_2 VDD=VDD VSS=VSS 
Xi_1_4 AOI21_X1 $PINS ZN=n_1_2 A=n_4 B1=n_5 B2=n_11 VDD=VDD VSS=VSS 
Xi_1_3 INV_X1 $PINS ZN=n_11 A=n_1_1 VDD=VDD VSS=VSS 
Xi_1_2 AOI21_X1 $PINS ZN=n_1_1 A=n_2 B1=n_3 B2=n_10 VDD=VDD VSS=VSS 
Xi_1_1 INV_X1 $PINS ZN=n_10 A=n_1_0 VDD=VDD VSS=VSS 
Xi_1_0 AOI21_X1 $PINS ZN=n_1_0 A=n_0 B1=n_1 B2=w_G VDD=VDD VSS=VSS 
Xi_0_2 NOR2_X1 $PINS ZN=Overflow A1=n_0_0 A2=n_0_1 VDD=VDD VSS=VSS 
Xi_0_1 XNOR2_X1 $PINS ZN=n_0_1 A=A[23] B=Sum[23] VDD=VDD VSS=VSS 
Xi_0_0 XOR2_X1 $PINS Z=n_0_0 A=A[23] B=B[23] VDD=VDD VSS=VSS 
Xgenblk1_5_stage1 CLA_4bit $PINS g=n_8 p=n_9 s[3]=Sum[23] s[2]=Sum[22] 
+ s[1]=Sum[21] s[0]=Sum[20] cO=n_13 x[3]=A[23] x[2]=A[22] x[1]=A[21] x[0]=A[20] 
+ y[3]=B[23] y[2]=B[22] y[1]=B[21] y[0]=B[20] VDD=VDD VSS=VSS 
Xgenblk1_4_stage1 CLA_4bit__0_146 $PINS g=n_6 p=n_7 s[3]=Sum[19] s[2]=Sum[18] 
+ s[1]=Sum[17] s[0]=Sum[16] cO=n_12 x[3]=A[19] x[2]=A[18] x[1]=A[17] x[0]=A[16] 
+ y[3]=B[19] y[2]=B[18] y[1]=B[17] y[0]=B[16] VDD=VDD VSS=VSS 
Xgenblk1_3_stage1 CLA_4bit__0_138 $PINS g=n_4 p=n_5 s[3]=Sum[15] s[2]=Sum[14] 
+ s[1]=Sum[13] s[0]=Sum[12] cO=n_11 x[3]=A[15] x[2]=A[14] x[1]=A[13] x[0]=A[12] 
+ y[3]=B[15] y[2]=B[14] y[1]=B[13] y[0]=B[12] VDD=VDD VSS=VSS 
Xgenblk1_2_stage1 CLA_4bit__0_130 $PINS g=n_2 p=n_3 s[3]=Sum[11] s[2]=Sum[10] 
+ s[1]=Sum[9] s[0]=Sum[8] cO=n_10 x[3]=A[11] x[2]=A[10] x[1]=A[9] x[0]=A[8] 
+ y[3]=B[11] y[2]=B[10] y[1]=B[9] y[0]=B[8] VDD=VDD VSS=VSS 
Xgenblk1_1_stage1 CLA_4bit__0_122 $PINS g=n_0 p=n_1 s[3]=Sum[7] s[2]=Sum[6] 
+ s[1]=Sum[5] s[0]=Sum[4] cO=w_G x[3]=A[7] x[2]=A[6] x[1]=A[5] x[0]=A[4] 
+ y[3]=B[7] y[2]=B[6] y[1]=B[5] y[0]=B[4] VDD=VDD VSS=VSS 
Xgenblk1_0_stage1 CLA_4bit__0_114 $PINS g=w_G s[3]=Sum[3] s[2]=Sum[2] 
+ s[1]=Sum[1] s[0]=Sum[0] x[3]=A[3] x[2]=A[2] x[1]=A[1] x[0]=A[0] y[3]=B[3] 
+ y[2]=B[2] y[1]=B[1] y[0]=B[0] VDD=VDD VSS=VSS 
.ENDS

.SUBCKT addition_normaliser VDD VSS in_e[7] in_e[6] in_e[5] in_e[4] in_e[3] 
+ in_e[2] in_e[1] in_e[0] in_m[24] in_m[23] in_m[22] in_m[21] in_m[20] in_m[19] 
+ in_m[18] in_m[17] in_m[16] in_m[15] in_m[14] in_m[13] in_m[12] in_m[11] 
+ in_m[10] in_m[9] in_m[8] in_m[7] in_m[6] in_m[5] in_m[4] in_m[3] in_m[2] 
+ in_m[1] in_m[0] out_e[7] out_e[6] out_e[5] out_e[4] out_e[3] out_e[2] 
+ out_e[1] out_e[0] out_m[24] out_m[23] out_m[22] out_m[21] out_m[20] out_m[19] 
+ out_m[18] out_m[17] out_m[16] out_m[15] out_m[14] out_m[13] out_m[12] 
+ out_m[11] out_m[10] out_m[9] out_m[8] out_m[7] out_m[6] out_m[5] out_m[4] 
+ out_m[3] out_m[2] out_m[1] out_m[0] 
Xi_0_530 INV_X1 $PINS ZN=n_0_514 A=in_e[6] VDD=VDD VSS=VSS 
Xi_0_529 INV_X1 $PINS ZN=n_0_513 A=in_e[3] VDD=VDD VSS=VSS 
Xi_0_528 INV_X1 $PINS ZN=n_0_512 A=in_e[2] VDD=VDD VSS=VSS 
Xi_0_527 INV_X1 $PINS ZN=n_0_511 A=in_e[1] VDD=VDD VSS=VSS 
Xi_0_526 INV_X1 $PINS ZN=n_0_510 A=in_e[0] VDD=VDD VSS=VSS 
Xi_0_525 INV_X1 $PINS ZN=n_0_509 A=in_m[21] VDD=VDD VSS=VSS 
Xi_0_524 INV_X1 $PINS ZN=n_0_508 A=in_m[20] VDD=VDD VSS=VSS 
Xi_0_523 INV_X1 $PINS ZN=n_0_507 A=in_m[19] VDD=VDD VSS=VSS 
Xi_0_522 INV_X1 $PINS ZN=n_0_506 A=in_m[18] VDD=VDD VSS=VSS 
Xi_0_521 INV_X1 $PINS ZN=n_0_505 A=in_m[17] VDD=VDD VSS=VSS 
Xi_0_520 INV_X1 $PINS ZN=n_0_504 A=in_m[16] VDD=VDD VSS=VSS 
Xi_0_519 INV_X1 $PINS ZN=n_0_503 A=in_m[15] VDD=VDD VSS=VSS 
Xi_0_518 INV_X1 $PINS ZN=n_0_502 A=in_m[14] VDD=VDD VSS=VSS 
Xi_0_517 INV_X1 $PINS ZN=n_0_501 A=in_m[13] VDD=VDD VSS=VSS 
Xi_0_516 INV_X1 $PINS ZN=n_0_500 A=in_m[12] VDD=VDD VSS=VSS 
Xi_0_515 INV_X1 $PINS ZN=n_0_499 A=in_m[11] VDD=VDD VSS=VSS 
Xi_0_514 INV_X1 $PINS ZN=n_0_498 A=in_m[10] VDD=VDD VSS=VSS 
Xi_0_513 INV_X1 $PINS ZN=n_0_497 A=in_m[9] VDD=VDD VSS=VSS 
Xi_0_512 INV_X1 $PINS ZN=n_0_496 A=in_m[8] VDD=VDD VSS=VSS 
Xi_0_511 INV_X1 $PINS ZN=n_0_495 A=in_m[7] VDD=VDD VSS=VSS 
Xi_0_510 INV_X1 $PINS ZN=n_0_494 A=in_m[6] VDD=VDD VSS=VSS 
Xi_0_509 INV_X1 $PINS ZN=n_0_493 A=in_m[5] VDD=VDD VSS=VSS 
Xi_0_508 INV_X1 $PINS ZN=n_0_492 A=in_m[4] VDD=VDD VSS=VSS 
Xi_0_507 INV_X1 $PINS ZN=n_0_491 A=in_m[3] VDD=VDD VSS=VSS 
Xi_0_506 INV_X1 $PINS ZN=n_0_490 A=in_m[2] VDD=VDD VSS=VSS 
Xi_0_505 INV_X1 $PINS ZN=n_0_489 A=in_m[1] VDD=VDD VSS=VSS 
Xi_0_504 INV_X1 $PINS ZN=n_0_488 A=n_0_2 VDD=VDD VSS=VSS 
Xi_0_503 INV_X1 $PINS ZN=n_0_487 A=n_0_12 VDD=VDD VSS=VSS 
Xi_0_502 INV_X1 $PINS ZN=n_0_486 A=n_0_29 VDD=VDD VSS=VSS 
Xi_0_501 INV_X1 $PINS ZN=n_0_485 A=n_0_14 VDD=VDD VSS=VSS 
Xi_0_500 NOR2_X2 $PINS ZN=n_0_484 A1=in_m[23] A2=in_m[22] VDD=VDD VSS=VSS 
Xi_0_499 INV_X1 $PINS ZN=n_0_483 A=n_0_484 VDD=VDD VSS=VSS 
Xi_0_498 NAND2_X1 $PINS ZN=n_0_482 A1=n_0_508 A2=n_0_484 VDD=VDD VSS=VSS 
Xi_0_497 INV_X1 $PINS ZN=n_0_481 A=n_0_482 VDD=VDD VSS=VSS 
Xi_0_496 NAND2_X1 $PINS ZN=n_0_480 A1=n_0_509 A2=n_0_484 VDD=VDD VSS=VSS 
Xi_0_495 INV_X1 $PINS ZN=n_0_479 A=n_0_480 VDD=VDD VSS=VSS 
Xi_0_494 NAND2_X1 $PINS ZN=n_0_478 A1=n_0_509 A2=n_0_481 VDD=VDD VSS=VSS 
Xi_0_493 INV_X1 $PINS ZN=n_0_477 A=n_0_478 VDD=VDD VSS=VSS 
Xi_0_492 NAND2_X1 $PINS ZN=n_0_476 A1=n_0_507 A2=n_0_505 VDD=VDD VSS=VSS 
Xi_0_491 INV_X1 $PINS ZN=n_0_475 A=n_0_476 VDD=VDD VSS=VSS 
Xi_0_490 NOR2_X1 $PINS ZN=n_0_474 A1=in_m[19] A2=in_m[18] VDD=VDD VSS=VSS 
Xi_0_489 NOR2_X1 $PINS ZN=n_0_473 A1=in_m[18] A2=n_0_476 VDD=VDD VSS=VSS 
Xi_0_488 NAND2_X1 $PINS ZN=n_0_472 A1=n_0_477 A2=n_0_473 VDD=VDD VSS=VSS 
Xi_0_487 INV_X1 $PINS ZN=n_0_471 A=n_0_472 VDD=VDD VSS=VSS 
Xi_0_486 OAI21_X1 $PINS ZN=n_0_470 A=n_0_503 B1=in_m[16] B2=n_0_501 VDD=VDD 
+ VSS=VSS 
Xi_0_485 NOR2_X1 $PINS ZN=n_0_469 A1=in_m[16] A2=in_m[15] VDD=VDD VSS=VSS 
Xi_0_484 OAI21_X1 $PINS ZN=n_0_468 A=n_0_497 B1=in_m[10] B2=n_0_495 VDD=VDD 
+ VSS=VSS 
Xi_0_483 NAND2_X1 $PINS ZN=n_0_467 A1=n_0_502 A2=n_0_500 VDD=VDD VSS=VSS 
Xi_0_482 INV_X1 $PINS ZN=n_0_466 A=n_0_467 VDD=VDD VSS=VSS 
Xi_0_481 AOI221_X1 $PINS ZN=n_0_465 A=in_m[13] B1=n_0_502 B2=in_m[11] 
+ C1=n_0_468 C2=n_0_466 VDD=VDD VSS=VSS 
Xi_0_480 NAND2_X1 $PINS ZN=n_0_464 A1=n_0_497 A2=in_m[6] VDD=VDD VSS=VSS 
Xi_0_479 AOI211_X1 $PINS ZN=n_0_463 A=in_m[13] B=in_m[11] C1=n_0_496 C2=n_0_464 
+ VDD=VDD VSS=VSS 
Xi_0_478 AOI211_X1 $PINS ZN=n_0_462 A=in_m[12] B=n_0_463 C1=n_0_501 C2=in_m[10] 
+ VDD=VDD VSS=VSS 
Xi_0_477 AOI21_X1 $PINS ZN=n_0_461 A=in_m[6] B1=n_0_495 B2=in_m[4] VDD=VDD 
+ VSS=VSS 
Xi_0_476 OAI21_X1 $PINS ZN=n_0_460 A=n_0_492 B1=in_m[5] B2=n_0_490 VDD=VDD 
+ VSS=VSS 
Xi_0_475 NAND2_X1 $PINS ZN=n_0_459 A1=n_0_495 A2=n_0_494 VDD=VDD VSS=VSS 
Xi_0_474 INV_X1 $PINS ZN=n_0_458 A=n_0_459 VDD=VDD VSS=VSS 
Xi_0_473 NAND3_X1 $PINS ZN=n_0_457 A1=in_m[3] A2=n_0_458 A3=n_0_460 VDD=VDD 
+ VSS=VSS 
Xi_0_472 OAI21_X1 $PINS ZN=n_0_456 A=n_0_457 B1=n_0_493 B2=n_0_461 VDD=VDD 
+ VSS=VSS 
Xi_0_471 NAND2_X1 $PINS ZN=n_0_455 A1=n_0_502 A2=n_0_501 VDD=VDD VSS=VSS 
Xi_0_470 INV_X1 $PINS ZN=n_0_454 A=n_0_455 VDD=VDD VSS=VSS 
Xi_0_469 NOR2_X1 $PINS ZN=n_0_453 A1=in_m[12] A2=in_m[11] VDD=VDD VSS=VSS 
Xi_0_468 NAND2_X1 $PINS ZN=n_0_452 A1=n_0_454 A2=n_0_453 VDD=VDD VSS=VSS 
Xi_0_467 INV_X1 $PINS ZN=n_0_451 A=n_0_452 VDD=VDD VSS=VSS 
Xi_0_466 NAND2_X1 $PINS ZN=n_0_450 A1=n_0_496 A2=n_0_451 VDD=VDD VSS=VSS 
Xi_0_465 INV_X1 $PINS ZN=n_0_449 A=n_0_450 VDD=VDD VSS=VSS 
Xi_0_464 NAND2_X1 $PINS ZN=n_0_448 A1=n_0_498 A2=n_0_497 VDD=VDD VSS=VSS 
Xi_0_463 INV_X1 $PINS ZN=n_0_447 A=n_0_448 VDD=VDD VSS=VSS 
Xi_0_462 NAND3_X1 $PINS ZN=n_0_446 A1=n_0_449 A2=n_0_447 A3=n_0_456 VDD=VDD 
+ VSS=VSS 
Xi_0_461 OAI21_X1 $PINS ZN=n_0_445 A=n_0_446 B1=n_0_465 B2=n_0_462 VDD=VDD 
+ VSS=VSS 
Xi_0_460 AOI22_X1 $PINS ZN=n_0_444 A1=in_m[14] A2=n_0_470 B1=n_0_469 B2=n_0_445 
+ VDD=VDD VSS=VSS 
Xi_0_459 OAI21_X1 $PINS ZN=n_0_443 A=n_0_509 B1=n_0_507 B2=n_0_483 VDD=VDD 
+ VSS=VSS 
Xi_0_458 NAND2_X1 $PINS ZN=n_0_442 A1=n_0_507 A2=in_m[16] VDD=VDD VSS=VSS 
Xi_0_457 NAND2_X1 $PINS ZN=n_0_441 A1=n_0_506 A2=in_m[15] VDD=VDD VSS=VSS 
Xi_0_456 AOI221_X1 $PINS ZN=n_0_440 A=n_0_478 B1=n_0_475 B2=n_0_441 C1=n_0_506 
+ C2=n_0_442 VDD=VDD VSS=VSS 
Xi_0_455 AOI21_X1 $PINS ZN=n_0_439 A=n_0_440 B1=n_0_482 B2=n_0_443 VDD=VDD 
+ VSS=VSS 
Xi_0_454 OAI21_X1 $PINS ZN=n_30 A=n_0_439 B1=n_0_472 B2=n_0_444 VDD=VDD VSS=VSS 
Xi_0_453 AND2_X1 $PINS ZN=n_0_438 A1=n_0_477 A2=n_0_469 VDD=VDD VSS=VSS 
Xi_0_452 AND2_X1 $PINS ZN=n_0_437 A1=n_0_473 A2=n_0_469 VDD=VDD VSS=VSS 
Xi_0_451 NAND2_X1 $PINS ZN=n_0_436 A1=n_0_473 A2=n_0_438 VDD=VDD VSS=VSS 
Xi_0_450 INV_X1 $PINS ZN=n_0_435 A=n_0_436 VDD=VDD VSS=VSS 
Xi_0_449 NAND2_X1 $PINS ZN=n_0_434 A1=n_0_494 A2=in_m[5] VDD=VDD VSS=VSS 
Xi_0_448 INV_X1 $PINS ZN=n_0_433 A=n_0_434 VDD=VDD VSS=VSS 
Xi_0_447 NAND3_X1 $PINS ZN=n_0_432 A1=in_m[1] A2=n_0_458 A3=n_0_492 VDD=VDD 
+ VSS=VSS 
Xi_0_446 AOI211_X1 $PINS ZN=n_0_431 A=n_0_491 B=n_0_448 C1=n_0_434 C2=n_0_432 
+ VDD=VDD VSS=VSS 
Xi_0_445 NAND3_X1 $PINS ZN=n_0_430 A1=n_0_495 A2=in_m[4] A3=n_0_447 VDD=VDD 
+ VSS=VSS 
Xi_0_444 OAI33_X1 $PINS ZN=n_0_429 A1=in_m[5] A2=n_0_490 A3=n_0_430 B1=in_m[10] 
+ B2=n_0_495 B3=n_0_493 VDD=VDD VSS=VSS 
Xi_0_443 OR2_X1 $PINS ZN=n_0_428 A1=n_0_431 A2=n_0_429 VDD=VDD VSS=VSS 
Xi_0_442 NAND2_X1 $PINS ZN=n_0_427 A1=n_0_499 A2=n_0_454 VDD=VDD VSS=VSS 
Xi_0_441 INV_X1 $PINS ZN=n_0_426 A=n_0_427 VDD=VDD VSS=VSS 
Xi_0_440 NAND2_X1 $PINS ZN=n_0_425 A1=n_0_500 A2=n_0_454 VDD=VDD VSS=VSS 
Xi_0_439 INV_X1 $PINS ZN=n_0_424 A=n_0_425 VDD=VDD VSS=VSS 
Xi_0_438 NAND2_X1 $PINS ZN=n_0_423 A1=n_0_498 A2=in_m[9] VDD=VDD VSS=VSS 
Xi_0_437 INV_X1 $PINS ZN=n_0_422 A=n_0_423 VDD=VDD VSS=VSS 
Xi_0_436 NAND3_X1 $PINS ZN=n_0_421 A1=in_m[7] A2=n_0_422 A3=n_0_424 VDD=VDD 
+ VSS=VSS 
Xi_0_435 AOI211_X1 $PINS ZN=n_0_420 A=n_0_464 B=n_0_452 C1=n_0_496 C2=n_0_430 
+ VDD=VDD VSS=VSS 
Xi_0_434 AOI22_X1 $PINS ZN=n_0_419 A1=in_m[8] A2=n_0_426 B1=n_0_501 B2=in_m[12] 
+ VDD=VDD VSS=VSS 
Xi_0_433 OAI21_X1 $PINS ZN=n_0_418 A=n_0_421 B1=n_0_498 B2=n_0_419 VDD=VDD 
+ VSS=VSS 
Xi_0_432 AOI211_X1 $PINS ZN=n_0_417 A=n_0_420 B=n_0_418 C1=n_0_449 C2=n_0_428 
+ VDD=VDD VSS=VSS 
Xi_0_431 NAND2_X1 $PINS ZN=n_0_416 A1=n_0_504 A2=n_0_471 VDD=VDD VSS=VSS 
Xi_0_430 INV_X1 $PINS ZN=n_0_415 A=n_0_416 VDD=VDD VSS=VSS 
Xi_0_429 OAI33_X1 $PINS ZN=n_0_414 A1=n_0_497 A2=n_0_436 A3=in_m[12] 
+ B1=in_m[16] B2=n_0_472 B3=n_0_501 VDD=VDD VSS=VSS 
Xi_0_428 NAND3_X1 $PINS ZN=n_0_413 A1=n_0_502 A2=in_m[11] A3=n_0_414 VDD=VDD 
+ VSS=VSS 
Xi_0_427 NOR3_X1 $PINS ZN=n_0_412 A1=n_0_504 A2=n_0_478 A3=n_0_476 VDD=VDD 
+ VSS=VSS 
Xi_0_426 NAND2_X1 $PINS ZN=n_0_411 A1=n_0_503 A2=n_0_471 VDD=VDD VSS=VSS 
Xi_0_425 INV_X1 $PINS ZN=n_0_410 A=n_0_411 VDD=VDD VSS=VSS 
Xi_0_424 AOI21_X1 $PINS ZN=n_0_409 A=n_0_412 B1=in_m[12] B2=n_0_410 VDD=VDD 
+ VSS=VSS 
Xi_0_423 NAND2_X1 $PINS ZN=n_0_408 A1=n_0_504 A2=in_m[15] VDD=VDD VSS=VSS 
Xi_0_422 NAND3_X1 $PINS ZN=n_0_407 A1=in_m[13] A2=n_0_474 A3=n_0_477 VDD=VDD 
+ VSS=VSS 
Xi_0_421 OAI33_X1 $PINS ZN=n_0_406 A1=in_m[19] A2=n_0_504 A3=n_0_506 
+ B1=in_m[20] B2=n_0_505 B3=n_0_441 VDD=VDD VSS=VSS 
Xi_0_420 NAND2_X1 $PINS ZN=n_0_405 A1=in_m[21] A2=n_0_484 VDD=VDD VSS=VSS 
Xi_0_419 INV_X1 $PINS ZN=n_0_404 A=n_0_405 VDD=VDD VSS=VSS 
Xi_0_418 AOI21_X1 $PINS ZN=n_0_403 A=n_0_483 B1=n_0_509 B2=in_m[18] VDD=VDD 
+ VSS=VSS 
Xi_0_417 OAI21_X1 $PINS ZN=n_0_402 A=n_0_509 B1=in_m[20] B2=n_0_505 VDD=VDD 
+ VSS=VSS 
Xi_0_416 NAND3_X1 $PINS ZN=n_0_401 A1=in_m[19] A2=n_0_484 A3=n_0_402 VDD=VDD 
+ VSS=VSS 
Xi_0_415 OAI21_X1 $PINS ZN=n_0_400 A=n_0_401 B1=n_0_508 B2=n_0_403 VDD=VDD 
+ VSS=VSS 
Xi_0_414 AOI21_X1 $PINS ZN=n_0_399 A=n_0_400 B1=n_0_479 B2=n_0_406 VDD=VDD 
+ VSS=VSS 
Xi_0_413 OAI221_X1 $PINS ZN=n_0_398 A=n_0_399 B1=n_0_408 B2=n_0_407 C1=n_0_502 
+ C2=n_0_409 VDD=VDD VSS=VSS 
Xi_0_412 INV_X1 $PINS ZN=n_0_397 A=n_0_398 VDD=VDD VSS=VSS 
Xi_0_411 OAI211_X1 $PINS ZN=n_29 A=n_0_413 B=n_0_397 C1=n_0_436 C2=n_0_417 
+ VDD=VDD VSS=VSS 
Xi_0_410 NAND4_X1 $PINS ZN=n_0_396 A1=n_0_497 A2=n_0_493 A3=n_0_492 A4=in_m[0] 
+ VDD=VDD VSS=VSS 
Xi_0_409 AOI211_X1 $PINS ZN=n_0_395 A=in_m[7] B=n_0_491 C1=n_0_494 C2=n_0_396 
+ VDD=VDD VSS=VSS 
Xi_0_408 NAND2_X1 $PINS ZN=n_0_394 A1=n_0_494 A2=n_0_493 VDD=VDD VSS=VSS 
Xi_0_407 INV_X1 $PINS ZN=n_0_393 A=n_0_394 VDD=VDD VSS=VSS 
Xi_0_406 NAND3_X1 $PINS ZN=n_0_392 A1=n_0_498 A2=in_m[1] A3=n_0_393 VDD=VDD 
+ VSS=VSS 
Xi_0_405 AOI21_X1 $PINS ZN=n_0_391 A=n_0_492 B1=n_0_495 B2=n_0_392 VDD=VDD 
+ VSS=VSS 
Xi_0_404 AOI22_X1 $PINS ZN=n_0_390 A1=n_0_498 A2=n_0_395 B1=n_0_497 B2=n_0_391 
+ VDD=VDD VSS=VSS 
Xi_0_403 NAND3_X1 $PINS ZN=n_0_389 A1=in_m[6] A2=n_0_422 A3=n_0_426 VDD=VDD 
+ VSS=VSS 
Xi_0_402 NAND3_X1 $PINS ZN=n_0_388 A1=n_0_499 A2=in_m[2] A3=n_0_458 VDD=VDD 
+ VSS=VSS 
Xi_0_401 AOI21_X1 $PINS ZN=n_0_387 A=n_0_493 B1=n_0_496 B2=n_0_388 VDD=VDD 
+ VSS=VSS 
Xi_0_400 NAND3_X1 $PINS ZN=n_0_386 A1=n_0_447 A2=n_0_424 A3=n_0_387 VDD=VDD 
+ VSS=VSS 
Xi_0_399 OAI211_X1 $PINS ZN=n_0_385 A=n_0_389 B=n_0_386 C1=n_0_450 C2=n_0_390 
+ VDD=VDD VSS=VSS 
Xi_0_398 NAND2_X1 $PINS ZN=n_0_384 A1=in_m[12] A2=n_0_454 VDD=VDD VSS=VSS 
Xi_0_397 INV_X1 $PINS ZN=n_0_383 A=n_0_384 VDD=VDD VSS=VSS 
Xi_0_396 NOR3_X1 $PINS ZN=n_0_382 A1=n_0_497 A2=n_0_416 A3=n_0_384 VDD=VDD 
+ VSS=VSS 
Xi_0_395 OAI21_X1 $PINS ZN=n_0_381 A=n_0_484 B1=n_0_504 B2=n_0_478 VDD=VDD 
+ VSS=VSS 
Xi_0_394 AOI221_X1 $PINS ZN=n_0_380 A=n_0_382 B1=in_m[19] B2=n_0_381 C1=n_0_435 
+ C2=n_0_385 VDD=VDD VSS=VSS 
Xi_0_393 NAND2_X1 $PINS ZN=n_0_379 A1=n_0_479 A2=n_0_437 VDD=VDD VSS=VSS 
Xi_0_392 NAND3_X1 $PINS ZN=n_0_378 A1=n_0_479 A2=n_0_437 A3=in_m[8] VDD=VDD 
+ VSS=VSS 
Xi_0_391 NAND2_X1 $PINS ZN=n_0_377 A1=n_0_474 A2=n_0_438 VDD=VDD VSS=VSS 
Xi_0_390 NOR2_X1 $PINS ZN=n_0_376 A1=n_0_502 A2=n_0_377 VDD=VDD VSS=VSS 
Xi_0_389 NOR4_X1 $PINS ZN=n_0_375 A1=in_m[20] A2=n_0_378 A3=in_m[12] 
+ A4=in_m[13] VDD=VDD VSS=VSS 
Xi_0_388 OAI21_X1 $PINS ZN=n_0_374 A=in_m[11] B1=n_0_376 B2=n_0_375 VDD=VDD 
+ VSS=VSS 
Xi_0_387 NAND2_X1 $PINS ZN=n_0_373 A1=n_0_508 A2=n_0_507 VDD=VDD VSS=VSS 
Xi_0_386 OAI21_X1 $PINS ZN=n_0_372 A=n_0_509 B1=n_0_503 B2=n_0_373 VDD=VDD 
+ VSS=VSS 
Xi_0_385 NAND2_X1 $PINS ZN=n_0_371 A1=n_0_506 A2=n_0_505 VDD=VDD VSS=VSS 
Xi_0_384 INV_X1 $PINS ZN=n_0_370 A=n_0_371 VDD=VDD VSS=VSS 
Xi_0_383 OAI33_X1 $PINS ZN=n_0_369 A1=n_0_476 A2=n_0_408 A3=n_0_500 B1=n_0_501 
+ B2=n_0_371 B3=n_0_504 VDD=VDD VSS=VSS 
Xi_0_382 NAND2_X1 $PINS ZN=n_0_368 A1=n_0_508 A2=n_0_369 VDD=VDD VSS=VSS 
Xi_0_381 AOI21_X1 $PINS ZN=n_0_367 A=in_m[20] B1=in_m[14] B2=n_0_474 VDD=VDD 
+ VSS=VSS 
Xi_0_380 OAI21_X1 $PINS ZN=n_0_366 A=n_0_368 B1=n_0_505 B2=n_0_367 VDD=VDD 
+ VSS=VSS 
Xi_0_379 NAND3_X1 $PINS ZN=n_0_365 A1=in_m[18] A2=n_0_484 A3=n_0_372 VDD=VDD 
+ VSS=VSS 
Xi_0_378 NAND2_X1 $PINS ZN=n_0_364 A1=in_m[7] A2=n_0_435 VDD=VDD VSS=VSS 
Xi_0_377 NAND2_X1 $PINS ZN=n_0_363 A1=n_0_499 A2=n_0_466 VDD=VDD VSS=VSS 
Xi_0_376 OR2_X1 $PINS ZN=n_0_362 A1=n_0_364 A2=n_0_363 VDD=VDD VSS=VSS 
Xi_0_375 NAND2_X1 $PINS ZN=n_0_361 A1=n_0_502 A2=in_m[13] VDD=VDD VSS=VSS 
Xi_0_374 INV_X1 $PINS ZN=n_0_360 A=n_0_361 VDD=VDD VSS=VSS 
Xi_0_373 OAI21_X1 $PINS ZN=n_0_359 A=n_0_362 B1=n_0_411 B2=n_0_361 VDD=VDD 
+ VSS=VSS 
Xi_0_372 AOI22_X1 $PINS ZN=n_0_358 A1=n_0_479 A2=n_0_366 B1=in_m[10] B2=n_0_359 
+ VDD=VDD VSS=VSS 
Xi_0_371 NAND4_X1 $PINS ZN=n_28 A1=n_0_380 A2=n_0_374 A3=n_0_365 A4=n_0_358 
+ VDD=VDD VSS=VSS 
Xi_0_370 NAND2_X1 $PINS ZN=n_0_357 A1=n_0_475 A2=n_0_438 VDD=VDD VSS=VSS 
Xi_0_369 NOR2_X1 $PINS ZN=n_0_356 A1=in_m[21] A2=n_0_373 VDD=VDD VSS=VSS 
Xi_0_368 NAND2_X1 $PINS ZN=n_0_355 A1=in_m[18] A2=n_0_356 VDD=VDD VSS=VSS 
Xi_0_367 OAI21_X1 $PINS ZN=n_0_354 A=n_0_355 B1=n_0_498 B2=n_0_357 VDD=VDD 
+ VSS=VSS 
Xi_0_366 NOR2_X2 $PINS ZN=n_0_353 A1=n_0_507 A2=n_0_478 VDD=VDD VSS=VSS 
Xi_0_365 NAND2_X1 $PINS ZN=n_0_352 A1=in_m[20] A2=n_0_479 VDD=VDD VSS=VSS 
Xi_0_364 INV_X1 $PINS ZN=n_0_351 A=n_0_352 VDD=VDD VSS=VSS 
Xi_0_363 OAI33_X1 $PINS ZN=n_0_350 A1=n_0_499 A2=n_0_408 A3=n_0_478 B1=n_0_500 
+ B2=n_0_480 B3=n_0_442 VDD=VDD VSS=VSS 
Xi_0_362 AOI21_X1 $PINS ZN=n_0_349 A=n_0_505 B1=n_0_407 B2=n_0_405 VDD=VDD 
+ VSS=VSS 
Xi_0_361 NAND2_X1 $PINS ZN=n_0_348 A1=in_m[11] A2=n_0_424 VDD=VDD VSS=VSS 
Xi_0_360 INV_X1 $PINS ZN=n_0_347 A=n_0_348 VDD=VDD VSS=VSS 
Xi_0_359 AOI221_X1 $PINS ZN=n_0_346 A=n_0_349 B1=in_m[14] B2=n_0_354 
+ C1=in_m[16] C2=n_0_351 VDD=VDD VSS=VSS 
Xi_0_358 NAND3_X1 $PINS ZN=n_0_345 A1=in_m[8] A2=n_0_410 A3=n_0_383 VDD=VDD 
+ VSS=VSS 
Xi_0_357 AOI222_X1 $PINS ZN=n_0_344 A1=in_m[15] A2=n_0_353 B1=in_m[18] 
+ B2=n_0_483 C1=n_0_370 C2=n_0_350 VDD=VDD VSS=VSS 
Xi_0_356 OAI33_X1 $PINS ZN=n_0_343 A1=n_0_416 A2=n_0_348 A3=n_0_495 B1=n_0_377 
+ B2=n_0_361 B3=n_0_497 VDD=VDD VSS=VSS 
Xi_0_355 INV_X1 $PINS ZN=n_0_342 A=n_0_343 VDD=VDD VSS=VSS 
Xi_0_354 AND4_X1 $PINS ZN=n_0_341 A1=n_0_344 A2=n_0_342 A3=n_0_345 A4=n_0_346 
+ VDD=VDD VSS=VSS 
Xi_0_353 NOR3_X1 $PINS ZN=n_0_340 A1=in_m[9] A2=in_m[7] A3=n_0_450 VDD=VDD 
+ VSS=VSS 
Xi_0_352 NAND2_X1 $PINS ZN=n_0_339 A1=in_m[2] A2=n_0_340 VDD=VDD VSS=VSS 
Xi_0_351 NAND2_X1 $PINS ZN=n_0_338 A1=n_0_501 A2=n_0_453 VDD=VDD VSS=VSS 
Xi_0_350 OAI21_X1 $PINS ZN=n_0_337 A=n_0_339 B1=n_0_498 B2=n_0_338 VDD=VDD 
+ VSS=VSS 
Xi_0_349 OAI33_X1 $PINS ZN=n_0_336 A1=n_0_489 A2=n_0_459 A3=n_0_450 B1=in_m[11] 
+ B2=n_0_467 B3=n_0_497 VDD=VDD VSS=VSS 
Xi_0_348 AND2_X1 $PINS ZN=n_0_335 A1=in_m[5] A2=n_0_336 VDD=VDD VSS=VSS 
Xi_0_347 NAND2_X1 $PINS ZN=n_0_334 A1=in_m[8] A2=n_0_447 VDD=VDD VSS=VSS 
Xi_0_346 INV_X1 $PINS ZN=n_0_333 A=n_0_334 VDD=VDD VSS=VSS 
Xi_0_345 NAND2_X1 $PINS ZN=n_0_332 A1=in_m[0] A2=n_0_451 VDD=VDD VSS=VSS 
Xi_0_344 OAI33_X1 $PINS ZN=n_0_331 A1=n_0_492 A2=n_0_427 A3=n_0_334 B1=n_0_430 
+ B2=n_0_394 B3=n_0_332 VDD=VDD VSS=VSS 
Xi_0_343 NAND2_X1 $PINS ZN=n_0_330 A1=n_0_496 A2=n_0_447 VDD=VDD VSS=VSS 
Xi_0_342 INV_X1 $PINS ZN=n_0_329 A=n_0_330 VDD=VDD VSS=VSS 
Xi_0_341 AOI221_X1 $PINS ZN=n_0_328 A=n_0_331 B1=n_0_498 B2=n_0_335 C1=in_m[6] 
+ C2=n_0_337 VDD=VDD VSS=VSS 
Xi_0_340 NOR2_X1 $PINS ZN=n_0_327 A1=n_0_364 A2=n_0_330 VDD=VDD VSS=VSS 
Xi_0_339 NAND2_X1 $PINS ZN=n_0_326 A1=n_0_424 A2=n_0_327 VDD=VDD VSS=VSS 
Xi_0_338 OAI221_X1 $PINS ZN=n_27 A=n_0_341 B1=n_0_491 B2=n_0_326 C1=n_0_436 
+ C2=n_0_328 VDD=VDD VSS=VSS 
Xi_0_337 NOR4_X1 $PINS ZN=n_0_325 A1=n_0_427 A2=n_0_330 A3=n_0_490 A4=n_0_364 
+ VDD=VDD VSS=VSS 
Xi_0_336 NAND2_X1 $PINS ZN=n_0_324 A1=n_0_506 A2=n_0_481 VDD=VDD VSS=VSS 
Xi_0_335 NAND3_X1 $PINS ZN=n_0_323 A1=n_0_506 A2=n_0_481 A3=n_0_412 VDD=VDD 
+ VSS=VSS 
Xi_0_334 INV_X1 $PINS ZN=n_0_322 A=n_0_323 VDD=VDD VSS=VSS 
Xi_0_333 NAND2_X1 $PINS ZN=n_0_321 A1=in_m[0] A2=n_0_435 VDD=VDD VSS=VSS 
Xi_0_332 INV_X1 $PINS ZN=n_0_320 A=n_0_321 VDD=VDD VSS=VSS 
Xi_0_331 OAI22_X1 $PINS ZN=n_0_319 A1=n_0_497 A2=n_0_436 B1=n_0_507 B2=n_0_478 
+ VDD=VDD VSS=VSS 
Xi_0_330 OAI21_X1 $PINS ZN=n_0_318 A=n_0_352 B1=n_0_498 B2=n_0_416 VDD=VDD 
+ VSS=VSS 
Xi_0_329 AOI22_X1 $PINS ZN=n_0_317 A1=in_m[14] A2=n_0_319 B1=in_m[15] 
+ B2=n_0_318 VDD=VDD VSS=VSS 
Xi_0_328 NAND2_X1 $PINS ZN=n_0_316 A1=in_m[10] A2=n_0_451 VDD=VDD VSS=VSS 
Xi_0_327 INV_X1 $PINS ZN=n_0_315 A=n_0_316 VDD=VDD VSS=VSS 
Xi_0_326 NOR4_X1 $PINS ZN=n_0_314 A1=n_0_489 A2=n_0_425 A3=in_m[7] A4=n_0_494 
+ VDD=VDD VSS=VSS 
Xi_0_325 OAI33_X1 $PINS ZN=n_0_313 A1=n_0_363 A2=n_0_334 A3=n_0_491 B1=n_0_423 
+ B2=n_0_338 B3=n_0_492 VDD=VDD VSS=VSS 