$ Spice netlist generated by v2lvs
$ v2020.1_25.14    Mon Feb 3 16:40:08 PST 2020
*.BUSDELIMITER [ 

.SUBCKT registerNbits VDD VSS clk reset en inp[31] inp[30] inp[29] inp[28] 
+ inp[27] inp[26] inp[25] inp[24] inp[23] inp[22] inp[21] inp[20] inp[19] 
+ inp[18] inp[17] inp[16] inp[15] inp[14] inp[13] inp[12] inp[11] inp[10] 
+ inp[9] inp[8] inp[7] inp[6] inp[5] inp[4] inp[3] inp[2] inp[1] inp[0] out[31] 
+ out[30] out[29] out[28] out[27] out[26] out[25] out[24] out[23] out[22] 
+ out[21] out[20] out[19] out[18] out[17] out[16] out[15] out[14] out[13] 
+ out[12] out[11] out[10] out[9] out[8] out[7] out[6] out[5] out[4] out[3] 
+ out[2] out[1] out[0] 
Xi_0_33 AND2_X1 $PINS ZN=n_33 A1=n_0_0 A2=inp[31] VDD=VDD VSS=VSS 
Xi_0_32 AND2_X1 $PINS ZN=n_32 A1=n_0_0 A2=inp[30] VDD=VDD VSS=VSS 
Xi_0_31 AND2_X1 $PINS ZN=n_31 A1=n_0_0 A2=inp[29] VDD=VDD VSS=VSS 
Xi_0_30 AND2_X1 $PINS ZN=n_30 A1=n_0_0 A2=inp[28] VDD=VDD VSS=VSS 
Xi_0_29 AND2_X1 $PINS ZN=n_29 A1=n_0_0 A2=inp[27] VDD=VDD VSS=VSS 
Xi_0_28 AND2_X1 $PINS ZN=n_28 A1=n_0_0 A2=inp[26] VDD=VDD VSS=VSS 
Xi_0_27 AND2_X1 $PINS ZN=n_27 A1=n_0_0 A2=inp[25] VDD=VDD VSS=VSS 
Xi_0_26 AND2_X1 $PINS ZN=n_26 A1=n_0_0 A2=inp[24] VDD=VDD VSS=VSS 
Xi_0_25 AND2_X1 $PINS ZN=n_25 A1=n_0_0 A2=inp[23] VDD=VDD VSS=VSS 
Xi_0_24 AND2_X1 $PINS ZN=n_24 A1=n_0_0 A2=inp[22] VDD=VDD VSS=VSS 
Xi_0_23 AND2_X1 $PINS ZN=n_23 A1=n_0_0 A2=inp[21] VDD=VDD VSS=VSS 
Xi_0_22 AND2_X1 $PINS ZN=n_22 A1=n_0_0 A2=inp[20] VDD=VDD VSS=VSS 
Xi_0_21 AND2_X1 $PINS ZN=n_21 A1=n_0_0 A2=inp[19] VDD=VDD VSS=VSS 
Xi_0_20 AND2_X1 $PINS ZN=n_20 A1=n_0_0 A2=inp[18] VDD=VDD VSS=VSS 
Xi_0_19 AND2_X1 $PINS ZN=n_19 A1=n_0_0 A2=inp[17] VDD=VDD VSS=VSS 
Xi_0_18 AND2_X1 $PINS ZN=n_18 A1=n_0_0 A2=inp[16] VDD=VDD VSS=VSS 
Xi_0_17 AND2_X1 $PINS ZN=n_17 A1=n_0_0 A2=inp[15] VDD=VDD VSS=VSS 
Xi_0_16 AND2_X1 $PINS ZN=n_16 A1=n_0_0 A2=inp[14] VDD=VDD VSS=VSS 
Xi_0_15 AND2_X1 $PINS ZN=n_15 A1=n_0_0 A2=inp[13] VDD=VDD VSS=VSS 
Xi_0_14 AND2_X1 $PINS ZN=n_14 A1=n_0_0 A2=inp[12] VDD=VDD VSS=VSS 
Xi_0_13 AND2_X1 $PINS ZN=n_13 A1=n_0_0 A2=inp[11] VDD=VDD VSS=VSS 
Xi_0_12 AND2_X1 $PINS ZN=n_12 A1=n_0_0 A2=inp[10] VDD=VDD VSS=VSS 
Xi_0_11 AND2_X1 $PINS ZN=n_11 A1=n_0_0 A2=inp[9] VDD=VDD VSS=VSS 
Xi_0_10 AND2_X1 $PINS ZN=n_10 A1=n_0_0 A2=inp[8] VDD=VDD VSS=VSS 
Xi_0_9 AND2_X1 $PINS ZN=n_9 A1=n_0_0 A2=inp[7] VDD=VDD VSS=VSS 
Xi_0_8 AND2_X1 $PINS ZN=n_8 A1=n_0_0 A2=inp[6] VDD=VDD VSS=VSS 
Xi_0_7 AND2_X1 $PINS ZN=n_7 A1=n_0_0 A2=inp[5] VDD=VDD VSS=VSS 
Xi_0_6 AND2_X1 $PINS ZN=n_6 A1=n_0_0 A2=inp[4] VDD=VDD VSS=VSS 
Xi_0_5 AND2_X1 $PINS ZN=n_5 A1=n_0_0 A2=inp[3] VDD=VDD VSS=VSS 
Xi_0_4 AND2_X1 $PINS ZN=n_4 A1=n_0_0 A2=inp[2] VDD=VDD VSS=VSS 
Xi_0_3 AND2_X1 $PINS ZN=n_3 A1=n_0_0 A2=inp[1] VDD=VDD VSS=VSS 
Xi_0_2 AND2_X1 $PINS ZN=n_2 A1=n_0_0 A2=inp[0] VDD=VDD VSS=VSS 
Xi_0_1 INV_X1 $PINS ZN=n_0_0 A=reset VDD=VDD VSS=VSS 
Xi_0_0 OR2_X1 $PINS ZN=n_1 A1=en A2=reset VDD=VDD VSS=VSS 
Xout_reg[0] DFF_X1 $PINS Q=out[0] CK=n_0 D=n_2 VDD=VDD VSS=VSS 
Xout_reg[1] DFF_X1 $PINS Q=out[1] CK=n_0 D=n_3 VDD=VDD VSS=VSS 
Xout_reg[2] DFF_X1 $PINS Q=out[2] CK=n_0 D=n_4 VDD=VDD VSS=VSS 
Xout_reg[3] DFF_X1 $PINS Q=out[3] CK=n_0 D=n_5 VDD=VDD VSS=VSS 
Xout_reg[4] DFF_X1 $PINS Q=out[4] CK=n_0 D=n_6 VDD=VDD VSS=VSS 
Xout_reg[5] DFF_X1 $PINS Q=out[5] CK=n_0 D=n_7 VDD=VDD VSS=VSS 
Xout_reg[6] DFF_X1 $PINS Q=out[6] CK=n_0 D=n_8 VDD=VDD VSS=VSS 
Xout_reg[7] DFF_X1 $PINS Q=out[7] CK=n_0 D=n_9 VDD=VDD VSS=VSS 
Xout_reg[8] DFF_X1 $PINS Q=out[8] CK=n_0 D=n_10 VDD=VDD VSS=VSS 
Xout_reg[9] DFF_X1 $PINS Q=out[9] CK=n_0 D=n_11 VDD=VDD VSS=VSS 
Xout_reg[10] DFF_X1 $PINS Q=out[10] CK=n_0 D=n_12 VDD=VDD VSS=VSS 
Xout_reg[11] DFF_X1 $PINS Q=out[11] CK=n_0 D=n_13 VDD=VDD VSS=VSS 
Xout_reg[12] DFF_X1 $PINS Q=out[12] CK=n_0 D=n_14 VDD=VDD VSS=VSS 
Xout_reg[13] DFF_X1 $PINS Q=out[13] CK=n_0 D=n_15 VDD=VDD VSS=VSS 
Xout_reg[14] DFF_X1 $PINS Q=out[14] CK=n_0 D=n_16 VDD=VDD VSS=VSS 
Xout_reg[15] DFF_X1 $PINS Q=out[15] CK=n_0 D=n_17 VDD=VDD VSS=VSS 
Xout_reg[16] DFF_X1 $PINS Q=out[16] CK=n_0 D=n_18 VDD=VDD VSS=VSS 
Xout_reg[17] DFF_X1 $PINS Q=out[17] CK=n_0 D=n_19 VDD=VDD VSS=VSS 
Xout_reg[18] DFF_X1 $PINS Q=out[18] CK=n_0 D=n_20 VDD=VDD VSS=VSS 
Xout_reg[19] DFF_X1 $PINS Q=out[19] CK=n_0 D=n_21 VDD=VDD VSS=VSS 
Xout_reg[20] DFF_X1 $PINS Q=out[20] CK=n_0 D=n_22 VDD=VDD VSS=VSS 
Xout_reg[21] DFF_X1 $PINS Q=out[21] CK=n_0 D=n_23 VDD=VDD VSS=VSS 
Xout_reg[22] DFF_X1 $PINS Q=out[22] CK=n_0 D=n_24 VDD=VDD VSS=VSS 
Xout_reg[23] DFF_X1 $PINS Q=out[23] CK=n_0 D=n_25 VDD=VDD VSS=VSS 
Xout_reg[24] DFF_X1 $PINS Q=out[24] CK=n_0 D=n_26 VDD=VDD VSS=VSS 
Xout_reg[25] DFF_X1 $PINS Q=out[25] CK=n_0 D=n_27 VDD=VDD VSS=VSS 
Xout_reg[26] DFF_X1 $PINS Q=out[26] CK=n_0 D=n_28 VDD=VDD VSS=VSS 
Xout_reg[27] DFF_X1 $PINS Q=out[27] CK=n_0 D=n_29 VDD=VDD VSS=VSS 
Xout_reg[28] DFF_X1 $PINS Q=out[28] CK=n_0 D=n_30 VDD=VDD VSS=VSS 
Xout_reg[29] DFF_X1 $PINS Q=out[29] CK=n_0 D=n_31 VDD=VDD VSS=VSS 
Xout_reg[30] DFF_X1 $PINS Q=out[30] CK=n_0 D=n_32 VDD=VDD VSS=VSS 
Xout_reg[31] DFF_X1 $PINS Q=out[31] CK=n_0 D=n_33 VDD=VDD VSS=VSS 
Xclk_gate_out_reg CLKGATETST_X1 $PINS GCK=n_0 CK=clk E=n_1 SE=VSS VDD=VDD 
+ VSS=VSS 
.ENDS

.SUBCKT datapath__0_5 VDD VSS p_0[22] p_0[21] p_0[20] p_0[19] p_0[18] p_0[17] 
+ p_0[16] p_0[15] p_0[14] p_0[13] p_0[12] p_0[11] p_0[10] p_0[9] p_0[8] p_0[7] 
+ p_0[6] p_0[5] p_0[4] p_0[3] p_0[2] p_0[1] p_0[0] p_1[22] p_1[21] p_1[20] 
+ p_1[19] p_1[18] p_1[17] p_1[16] p_1[15] p_1[14] p_1[13] p_1[12] p_1[11] 
+ p_1[10] p_1[9] p_1[8] p_1[7] p_1[6] p_1[5] p_1[4] p_1[3] p_1[2] p_1[1] p_1[0] 
+ O_final_mantessa[22] O_final_mantessa[21] O_final_mantessa[20] 
+ O_final_mantessa[19] O_final_mantessa[18] O_final_mantessa[17] 
+ O_final_mantessa[16] O_final_mantessa[15] O_final_mantessa[14] 
+ O_final_mantessa[13] O_final_mantessa[12] O_final_mantessa[11] 
+ O_final_mantessa[10] O_final_mantessa[9] O_final_mantessa[8] 
+ O_final_mantessa[7] O_final_mantessa[6] O_final_mantessa[5] 
+ O_final_mantessa[4] O_final_mantessa[3] O_final_mantessa[2] 
+ O_final_mantessa[1] O_final_mantessa[0] 
Xi_22 XOR2_X1 $PINS Z=O_final_mantessa[22] A=p_1[22] B=n_21 VDD=VDD VSS=VSS 
Xi_21 HA_X1 $PINS CO=n_21 S=O_final_mantessa[21] A=p_1[21] B=n_20 VDD=VDD 
+ VSS=VSS 
Xi_20 HA_X1 $PINS CO=n_20 S=O_final_mantessa[20] A=p_1[20] B=n_19 VDD=VDD 
+ VSS=VSS 
Xi_19 HA_X1 $PINS CO=n_19 S=O_final_mantessa[19] A=p_1[19] B=n_18 VDD=VDD 
+ VSS=VSS 
Xi_18 HA_X1 $PINS CO=n_18 S=O_final_mantessa[18] A=p_1[18] B=n_17 VDD=VDD 
+ VSS=VSS 
Xi_17 HA_X1 $PINS CO=n_17 S=O_final_mantessa[17] A=p_1[17] B=n_16 VDD=VDD 
+ VSS=VSS 
Xi_16 HA_X1 $PINS CO=n_16 S=O_final_mantessa[16] A=p_1[16] B=n_15 VDD=VDD 
+ VSS=VSS 
Xi_15 HA_X1 $PINS CO=n_15 S=O_final_mantessa[15] A=p_1[15] B=n_14 VDD=VDD 
+ VSS=VSS 
Xi_14 HA_X1 $PINS CO=n_14 S=O_final_mantessa[14] A=p_1[14] B=n_13 VDD=VDD 
+ VSS=VSS 
Xi_13 HA_X1 $PINS CO=n_13 S=O_final_mantessa[13] A=p_1[13] B=n_12 VDD=VDD 
+ VSS=VSS 
Xi_12 HA_X1 $PINS CO=n_12 S=O_final_mantessa[12] A=p_1[12] B=n_11 VDD=VDD 
+ VSS=VSS 
Xi_11 HA_X1 $PINS CO=n_11 S=O_final_mantessa[11] A=p_1[11] B=n_10 VDD=VDD 
+ VSS=VSS 
Xi_10 HA_X1 $PINS CO=n_10 S=O_final_mantessa[10] A=p_1[10] B=n_9 VDD=VDD 
+ VSS=VSS 
Xi_9 HA_X1 $PINS CO=n_9 S=O_final_mantessa[9] A=p_1[9] B=n_8 VDD=VDD VSS=VSS 
Xi_8 HA_X1 $PINS CO=n_8 S=O_final_mantessa[8] A=p_1[8] B=n_7 VDD=VDD VSS=VSS 
Xi_7 HA_X1 $PINS CO=n_7 S=O_final_mantessa[7] A=p_1[7] B=n_6 VDD=VDD VSS=VSS 
Xi_6 HA_X1 $PINS CO=n_6 S=O_final_mantessa[6] A=p_1[6] B=n_5 VDD=VDD VSS=VSS 
Xi_5 HA_X1 $PINS CO=n_5 S=O_final_mantessa[5] A=p_1[5] B=n_4 VDD=VDD VSS=VSS 
Xi_4 HA_X1 $PINS CO=n_4 S=O_final_mantessa[4] A=p_1[4] B=n_3 VDD=VDD VSS=VSS 
Xi_3 HA_X1 $PINS CO=n_3 S=O_final_mantessa[3] A=p_1[3] B=n_2 VDD=VDD VSS=VSS 
Xi_2 HA_X1 $PINS CO=n_2 S=O_final_mantessa[2] A=p_1[2] B=n_1 VDD=VDD VSS=VSS 
Xi_1 HA_X1 $PINS CO=n_1 S=O_final_mantessa[1] A=p_1[1] B=n_0 VDD=VDD VSS=VSS 
Xi_0 HA_X1 $PINS CO=n_0 S=O_final_mantessa[0] A=p_0[0] B=p_1[0] VDD=VDD VSS=VSS 
.ENDS

.SUBCKT datapath VDD VSS b_mantissa[23] b_mantissa[22] b_mantissa[21] 
+ b_mantissa[20] b_mantissa[19] b_mantissa[18] b_mantissa[17] b_mantissa[16] 
+ b_mantissa[15] b_mantissa[14] b_mantissa[13] b_mantissa[12] b_mantissa[11] 
+ b_mantissa[10] b_mantissa[9] b_mantissa[8] b_mantissa[7] b_mantissa[6] 
+ b_mantissa[5] b_mantissa[4] b_mantissa[3] b_mantissa[2] b_mantissa[1] 
+ b_mantissa[0] a_mantissa[23] a_mantissa[22] a_mantissa[21] a_mantissa[20] 
+ a_mantissa[19] a_mantissa[18] a_mantissa[17] a_mantissa[16] a_mantissa[15] 
+ a_mantissa[14] a_mantissa[13] a_mantissa[12] a_mantissa[11] a_mantissa[10] 
+ a_mantissa[9] a_mantissa[8] a_mantissa[7] a_mantissa[6] a_mantissa[5] 
+ a_mantissa[4] a_mantissa[3] a_mantissa[2] a_mantissa[1] a_mantissa[0] 
+ o_mantissa[47] o_mantissa[46] o_mantissa[45] o_mantissa[44] o_mantissa[43] 
+ o_mantissa[42] o_mantissa[41] o_mantissa[40] o_mantissa[39] o_mantissa[38] 
+ o_mantissa[37] o_mantissa[36] o_mantissa[35] o_mantissa[34] o_mantissa[33] 
+ o_mantissa[32] o_mantissa[31] o_mantissa[30] o_mantissa[29] o_mantissa[28] 
+ o_mantissa[27] o_mantissa[26] o_mantissa[25] o_mantissa[24] o_mantissa[23] 
+ o_mantissa[22] o_mantissa[21] o_mantissa[20] o_mantissa[19] o_mantissa[18] 
+ o_mantissa[17] o_mantissa[16] o_mantissa[15] o_mantissa[14] o_mantissa[13] 
+ o_mantissa[12] o_mantissa[11] o_mantissa[10] o_mantissa[9] o_mantissa[8] 
+ o_mantissa[7] o_mantissa[6] o_mantissa[5] o_mantissa[4] o_mantissa[3] 
+ o_mantissa[2] o_mantissa[1] o_mantissa[0] 
Xi_1381 INV_X2 $PINS ZN=n_1839 A=b_mantissa[22] VDD=VDD VSS=VSS 
Xi_1380 INV_X2 $PINS ZN=n_1838 A=b_mantissa[21] VDD=VDD VSS=VSS 
Xi_1379 INV_X2 $PINS ZN=n_1837 A=b_mantissa[20] VDD=VDD VSS=VSS 
Xi_1378 INV_X2 $PINS ZN=n_1836 A=b_mantissa[19] VDD=VDD VSS=VSS 
Xi_1377 INV_X2 $PINS ZN=n_1835 A=b_mantissa[18] VDD=VDD VSS=VSS 
Xi_1376 INV_X2 $PINS ZN=n_1834 A=b_mantissa[17] VDD=VDD VSS=VSS 
Xi_1375 INV_X2 $PINS ZN=n_1833 A=b_mantissa[16] VDD=VDD VSS=VSS 
Xi_1374 INV_X2 $PINS ZN=n_1832 A=b_mantissa[15] VDD=VDD VSS=VSS 
Xi_1373 INV_X2 $PINS ZN=n_1831 A=b_mantissa[14] VDD=VDD VSS=VSS 
Xi_1372 INV_X2 $PINS ZN=n_1830 A=b_mantissa[13] VDD=VDD VSS=VSS 
Xi_1371 INV_X2 $PINS ZN=n_1829 A=b_mantissa[12] VDD=VDD VSS=VSS 
Xi_1370 INV_X2 $PINS ZN=n_1828 A=b_mantissa[11] VDD=VDD VSS=VSS 
Xi_1369 INV_X2 $PINS ZN=n_1827 A=b_mantissa[10] VDD=VDD VSS=VSS 
Xi_1368 INV_X2 $PINS ZN=n_1826 A=b_mantissa[9] VDD=VDD VSS=VSS 
Xi_1367 INV_X2 $PINS ZN=n_1825 A=b_mantissa[8] VDD=VDD VSS=VSS 
Xi_1366 INV_X2 $PINS ZN=n_1824 A=b_mantissa[7] VDD=VDD VSS=VSS 
Xi_1365 INV_X2 $PINS ZN=n_1823 A=b_mantissa[6] VDD=VDD VSS=VSS 
Xi_1364 INV_X2 $PINS ZN=n_1822 A=b_mantissa[5] VDD=VDD VSS=VSS 
Xi_1363 INV_X2 $PINS ZN=n_1821 A=b_mantissa[4] VDD=VDD VSS=VSS 
Xi_1362 INV_X2 $PINS ZN=n_1820 A=b_mantissa[3] VDD=VDD VSS=VSS 
Xi_1361 INV_X2 $PINS ZN=n_1819 A=b_mantissa[2] VDD=VDD VSS=VSS 
Xi_1360 INV_X2 $PINS ZN=n_1818 A=b_mantissa[1] VDD=VDD VSS=VSS 
Xi_1359 INV_X2 $PINS ZN=n_1817 A=b_mantissa[0] VDD=VDD VSS=VSS 
Xi_1358 INV_X1 $PINS ZN=n_1816 A=a_mantissa[22] VDD=VDD VSS=VSS 
Xi_1357 INV_X2 $PINS ZN=n_1815 A=a_mantissa[21] VDD=VDD VSS=VSS 
Xi_1356 INV_X2 $PINS ZN=n_1814 A=a_mantissa[20] VDD=VDD VSS=VSS 
Xi_1355 INV_X2 $PINS ZN=n_1813 A=a_mantissa[19] VDD=VDD VSS=VSS 
Xi_1354 INV_X2 $PINS ZN=n_1812 A=a_mantissa[18] VDD=VDD VSS=VSS 
Xi_1353 INV_X2 $PINS ZN=n_1811 A=a_mantissa[17] VDD=VDD VSS=VSS 
Xi_1352 INV_X2 $PINS ZN=n_1810 A=a_mantissa[16] VDD=VDD VSS=VSS 
Xi_1351 INV_X2 $PINS ZN=n_1809 A=a_mantissa[15] VDD=VDD VSS=VSS 
Xi_1350 INV_X2 $PINS ZN=n_1808 A=a_mantissa[14] VDD=VDD VSS=VSS 
Xi_1349 INV_X2 $PINS ZN=n_1807 A=a_mantissa[13] VDD=VDD VSS=VSS 
Xi_1348 INV_X2 $PINS ZN=n_1806 A=a_mantissa[12] VDD=VDD VSS=VSS 
Xi_1347 INV_X2 $PINS ZN=n_1805 A=a_mantissa[11] VDD=VDD VSS=VSS 
Xi_1346 INV_X2 $PINS ZN=n_1804 A=a_mantissa[10] VDD=VDD VSS=VSS 
Xi_1345 INV_X2 $PINS ZN=n_1803 A=a_mantissa[9] VDD=VDD VSS=VSS 
Xi_1344 INV_X2 $PINS ZN=n_1802 A=a_mantissa[8] VDD=VDD VSS=VSS 
Xi_1343 INV_X2 $PINS ZN=n_1801 A=a_mantissa[7] VDD=VDD VSS=VSS 
Xi_1342 INV_X2 $PINS ZN=n_1800 A=a_mantissa[6] VDD=VDD VSS=VSS 
Xi_1341 INV_X2 $PINS ZN=n_1799 A=a_mantissa[5] VDD=VDD VSS=VSS 
Xi_1340 INV_X2 $PINS ZN=n_1798 A=a_mantissa[4] VDD=VDD VSS=VSS 
Xi_1339 INV_X1 $PINS ZN=n_1797 A=a_mantissa[3] VDD=VDD VSS=VSS 
Xi_1338 INV_X2 $PINS ZN=n_1796 A=a_mantissa[2] VDD=VDD VSS=VSS 
Xi_1337 INV_X2 $PINS ZN=n_1795 A=a_mantissa[1] VDD=VDD VSS=VSS 
Xi_1336 INV_X1 $PINS ZN=n_1794 A=a_mantissa[0] VDD=VDD VSS=VSS 
Xi_1335 NAND2_X1 $PINS ZN=n_1793 A1=n_1009 A2=n_1010 VDD=VDD VSS=VSS 
Xi_1334 NOR2_X1 $PINS ZN=n_1792 A1=n_1009 A2=n_1010 VDD=VDD VSS=VSS 
Xi_1333 AND2_X1 $PINS ZN=n_1791 A1=n_6 A2=n_10 VDD=VDD VSS=VSS 
Xi_1332 NAND2_X1 $PINS ZN=n_1790 A1=n_2 A2=n_4 VDD=VDD VSS=VSS 
Xi_1331 NOR2_X1 $PINS ZN=n_1789 A1=n_1817 A2=n_1796 VDD=VDD VSS=VSS 
Xi_1330 NOR2_X1 $PINS ZN=n_1788 A1=n_0 A2=n_1789 VDD=VDD VSS=VSS 
Xi_1329 NOR2_X1 $PINS ZN=n_1787 A1=n_1818 A2=n_1794 VDD=VDD VSS=VSS 
Xi_1328 NOR2_X1 $PINS ZN=n_1786 A1=n_1817 A2=n_1795 VDD=VDD VSS=VSS 
Xi_1327 NOR2_X1 $PINS ZN=o_mantissa[0] A1=n_1817 A2=n_1794 VDD=VDD VSS=VSS 
Xi_1326 NOR2_X1 $PINS ZN=n_1785 A1=n_1818 A2=n_1795 VDD=VDD VSS=VSS 
Xi_1325 NAND2_X1 $PINS ZN=n_1784 A1=o_mantissa[0] A2=n_1785 VDD=VDD VSS=VSS 
Xi_1324 NAND2_X1 $PINS ZN=n_1783 A1=n_0 A2=n_1789 VDD=VDD VSS=VSS 
Xi_1323 AOI21_X1 $PINS ZN=n_1782 A=n_1788 B1=n_1784 B2=n_1783 VDD=VDD VSS=VSS 
Xi_1322 OAI21_X1 $PINS ZN=n_1781 A=n_1782 B1=n_2 B2=n_4 VDD=VDD VSS=VSS 
Xi_1321 NAND2_X1 $PINS ZN=n_1780 A1=n_1790 A2=n_1781 VDD=VDD VSS=VSS 
Xi_1320 OAI22_X1 $PINS ZN=n_1779 A1=n_6 A2=n_10 B1=n_1791 B2=n_1780 VDD=VDD 
+ VSS=VSS 
Xi_1319 NOR2_X1 $PINS ZN=n_1778 A1=n_52 A2=n_54 VDD=VDD VSS=VSS 
Xi_1318 NOR2_X1 $PINS ZN=n_1777 A1=n_26 A2=n_28 VDD=VDD VSS=VSS 
Xi_1317 NOR2_X1 $PINS ZN=n_1776 A1=n_38 A2=n_40 VDD=VDD VSS=VSS 
Xi_1316 OR3_X1 $PINS ZN=n_1775 A1=n_1778 A2=n_1776 A3=n_1777 VDD=VDD VSS=VSS 
Xi_1315 NOR2_X1 $PINS ZN=n_1774 A1=n_16 A2=n_18 VDD=VDD VSS=VSS 
Xi_1314 NOR3_X1 $PINS ZN=n_1773 A1=n_1775 A2=n_1774 A3=n_1779 VDD=VDD VSS=VSS 
Xi_1313 NAND2_X1 $PINS ZN=n_1772 A1=n_16 A2=n_18 VDD=VDD VSS=VSS 
Xi_1312 NAND2_X1 $PINS ZN=n_1771 A1=n_26 A2=n_28 VDD=VDD VSS=VSS 
Xi_1311 AOI21_X1 $PINS ZN=n_1770 A=n_1775 B1=n_1772 B2=n_1771 VDD=VDD VSS=VSS 
Xi_1310 AND2_X1 $PINS ZN=n_1769 A1=n_52 A2=n_54 VDD=VDD VSS=VSS 
Xi_1309 NAND2_X1 $PINS ZN=n_1768 A1=n_38 A2=n_40 VDD=VDD VSS=VSS 
Xi_1308 INV_X1 $PINS ZN=n_1767 A=n_1768 VDD=VDD VSS=VSS 
Xi_1307 NOR2_X1 $PINS ZN=n_1766 A1=n_1778 A2=n_1768 VDD=VDD VSS=VSS 
Xi_1306 NOR4_X1 $PINS ZN=n_1765 A1=n_1769 A2=n_1766 A3=n_1770 A4=n_1773 VDD=VDD 
+ VSS=VSS 
Xi_1305 NOR2_X1 $PINS ZN=n_1764 A1=n_128 A2=n_130 VDD=VDD VSS=VSS 
Xi_1304 NOR2_X1 $PINS ZN=n_1763 A1=n_86 A2=n_88 VDD=VDD VSS=VSS 
Xi_1303 NOR2_X1 $PINS ZN=n_1762 A1=n_106 A2=n_108 VDD=VDD VSS=VSS 
Xi_1302 OR3_X1 $PINS ZN=n_1761 A1=n_1764 A2=n_1762 A3=n_1763 VDD=VDD VSS=VSS 
Xi_1301 NOR2_X1 $PINS ZN=n_1760 A1=n_68 A2=n_70 VDD=VDD VSS=VSS 
Xi_1300 NOR3_X1 $PINS ZN=n_1759 A1=n_1761 A2=n_1760 A3=n_1765 VDD=VDD VSS=VSS 
Xi_1299 NAND2_X1 $PINS ZN=n_1758 A1=n_68 A2=n_70 VDD=VDD VSS=VSS 
Xi_1298 NAND2_X1 $PINS ZN=n_1757 A1=n_86 A2=n_88 VDD=VDD VSS=VSS 
Xi_1297 AOI21_X1 $PINS ZN=n_1756 A=n_1761 B1=n_1758 B2=n_1757 VDD=VDD VSS=VSS 
Xi_1296 AND2_X1 $PINS ZN=n_1755 A1=n_128 A2=n_130 VDD=VDD VSS=VSS 
Xi_1295 NAND2_X1 $PINS ZN=n_1754 A1=n_106 A2=n_108 VDD=VDD VSS=VSS 
Xi_1294 INV_X1 $PINS ZN=n_1753 A=n_1754 VDD=VDD VSS=VSS 
Xi_1293 NOR2_X1 $PINS ZN=n_1752 A1=n_1764 A2=n_1754 VDD=VDD VSS=VSS 
Xi_1292 NOR4_X1 $PINS ZN=n_1751 A1=n_1755 A2=n_1752 A3=n_1756 A4=n_1759 VDD=VDD 
+ VSS=VSS 
Xi_1291 NOR2_X1 $PINS ZN=n_1750 A1=n_236 A2=n_238 VDD=VDD VSS=VSS 
Xi_1290 NOR2_X1 $PINS ZN=n_1749 A1=n_178 A2=n_180 VDD=VDD VSS=VSS 
Xi_1289 NOR2_X1 $PINS ZN=n_1748 A1=n_206 A2=n_208 VDD=VDD VSS=VSS 
Xi_1288 OR3_X1 $PINS ZN=n_1747 A1=n_1750 A2=n_1748 A3=n_1749 VDD=VDD VSS=VSS 
Xi_1287 NOR2_X1 $PINS ZN=n_1746 A1=n_152 A2=n_154 VDD=VDD VSS=VSS 
Xi_1286 NOR3_X1 $PINS ZN=n_1745 A1=n_1747 A2=n_1746 A3=n_1751 VDD=VDD VSS=VSS 
Xi_1285 NAND2_X1 $PINS ZN=n_1744 A1=n_152 A2=n_154 VDD=VDD VSS=VSS 
Xi_1284 NAND2_X1 $PINS ZN=n_1743 A1=n_178 A2=n_180 VDD=VDD VSS=VSS 
Xi_1283 AOI21_X1 $PINS ZN=n_1742 A=n_1747 B1=n_1744 B2=n_1743 VDD=VDD VSS=VSS 
Xi_1282 AND2_X1 $PINS ZN=n_1741 A1=n_236 A2=n_238 VDD=VDD VSS=VSS 
Xi_1281 NAND2_X1 $PINS ZN=n_1740 A1=n_206 A2=n_208 VDD=VDD VSS=VSS 
Xi_1280 INV_X1 $PINS ZN=n_1739 A=n_1740 VDD=VDD VSS=VSS 
Xi_1279 NOR2_X1 $PINS ZN=n_1738 A1=n_1750 A2=n_1740 VDD=VDD VSS=VSS 
Xi_1278 NOR4_X4 $PINS ZN=n_1737 A1=n_1741 A2=n_1738 A3=n_1742 A4=n_1745 VDD=VDD 
+ VSS=VSS 
Xi_1277 NOR2_X1 $PINS ZN=n_1736 A1=n_379 A2=n_418 VDD=VDD VSS=VSS 
Xi_1276 NOR2_X1 $PINS ZN=n_1735 A1=n_505 A2=n_548 VDD=VDD VSS=VSS 
Xi_1275 INV_X1 $PINS ZN=n_1734 A=n_1735 VDD=VDD VSS=VSS 
Xi_1274 NOR2_X1 $PINS ZN=n_1733 A1=n_419 A2=n_460 VDD=VDD VSS=VSS 
Xi_1273 INV_X1 $PINS ZN=n_1732 A=n_1733 VDD=VDD VSS=VSS 
Xi_1272 NOR2_X1 $PINS ZN=n_1731 A1=n_461 A2=n_504 VDD=VDD VSS=VSS 
Xi_1271 INV_X1 $PINS ZN=n_1730 A=n_1731 VDD=VDD VSS=VSS 
Xi_1270 NAND3_X1 $PINS ZN=n_1729 A1=n_1734 A2=n_1730 A3=n_1732 VDD=VDD VSS=VSS 
Xi_1269 OR2_X1 $PINS ZN=n_1728 A1=n_1736 A2=n_1729 VDD=VDD VSS=VSS 
Xi_1268 NOR2_X1 $PINS ZN=n_1727 A1=n_801 A2=n_828 VDD=VDD VSS=VSS 
Xi_1267 NOR2_X1 $PINS ZN=n_1726 A1=n_739 A2=n_770 VDD=VDD VSS=VSS 
Xi_1266 NOR2_X1 $PINS ZN=n_1725 A1=n_771 A2=n_800 VDD=VDD VSS=VSS 
Xi_1265 NOR2_X1 $PINS ZN=n_1724 A1=n_1726 A2=n_1725 VDD=VDD VSS=VSS 
Xi_1264 NOR3_X1 $PINS ZN=n_1723 A1=n_1727 A2=n_1725 A3=n_1726 VDD=VDD VSS=VSS 
Xi_1263 OAI21_X1 $PINS ZN=n_1722 A=n_1723 B1=n_705 B2=n_738 VDD=VDD VSS=VSS 
Xi_1262 NOR2_X1 $PINS ZN=n_1721 A1=n_669 A2=n_704 VDD=VDD VSS=VSS 
Xi_1261 INV_X1 $PINS ZN=n_1720 A=n_1721 VDD=VDD VSS=VSS 
Xi_1260 NOR2_X1 $PINS ZN=n_1719 A1=n_591 A2=n_630 VDD=VDD VSS=VSS 
Xi_1259 INV_X1 $PINS ZN=n_1718 A=n_1719 VDD=VDD VSS=VSS 
Xi_1258 NOR2_X1 $PINS ZN=n_1717 A1=n_631 A2=n_668 VDD=VDD VSS=VSS 
Xi_1257 INV_X1 $PINS ZN=n_1716 A=n_1717 VDD=VDD VSS=VSS 
Xi_1256 NAND3_X1 $PINS ZN=n_1715 A1=n_1720 A2=n_1716 A3=n_1718 VDD=VDD VSS=VSS 
Xi_1255 NOR2_X1 $PINS ZN=n_1714 A1=n_549 A2=n_590 VDD=VDD VSS=VSS 
Xi_1254 OR2_X1 $PINS ZN=n_1713 A1=n_1715 A2=n_1714 VDD=VDD VSS=VSS 
Xi_1253 OR2_X1 $PINS ZN=n_1712 A1=n_1722 A2=n_1713 VDD=VDD VSS=VSS 
Xi_1252 OR2_X1 $PINS ZN=n_1711 A1=n_1728 A2=n_1712 VDD=VDD VSS=VSS 
Xi_1251 NOR2_X1 $PINS ZN=n_1710 A1=n_376 A2=n_378 VDD=VDD VSS=VSS 
Xi_1250 INV_X1 $PINS ZN=n_1709 A=n_1710 VDD=VDD VSS=VSS 
Xi_1249 NOR2_X1 $PINS ZN=n_1708 A1=n_271 A2=n_304 VDD=VDD VSS=VSS 
Xi_1248 INV_X1 $PINS ZN=n_1707 A=n_1708 VDD=VDD VSS=VSS 
Xi_1247 NOR2_X1 $PINS ZN=n_1706 A1=n_305 A2=n_340 VDD=VDD VSS=VSS 
Xi_1246 INV_X1 $PINS ZN=n_1705 A=n_1706 VDD=VDD VSS=VSS 
Xi_1245 NAND3_X1 $PINS ZN=n_1704 A1=n_1709 A2=n_1705 A3=n_1707 VDD=VDD VSS=VSS 
Xi_1244 NOR2_X1 $PINS ZN=n_1703 A1=n_268 A2=n_270 VDD=VDD VSS=VSS 
Xi_1243 OR2_X1 $PINS ZN=n_1702 A1=n_1704 A2=n_1703 VDD=VDD VSS=VSS 
Xi_1242 NOR3_X1 $PINS ZN=n_1701 A1=n_1711 A2=n_1702 A3=n_1737 VDD=VDD VSS=VSS 
Xi_1241 NAND2_X1 $PINS ZN=n_1700 A1=n_268 A2=n_270 VDD=VDD VSS=VSS 
Xi_1240 NAND2_X1 $PINS ZN=n_1699 A1=n_271 A2=n_304 VDD=VDD VSS=VSS 
Xi_1239 INV_X1 $PINS ZN=n_1698 A=n_1699 VDD=VDD VSS=VSS 
Xi_1238 AOI21_X1 $PINS ZN=n_1697 A=n_1704 B1=n_1700 B2=n_1699 VDD=VDD VSS=VSS 
Xi_1237 AND2_X1 $PINS ZN=n_1696 A1=n_305 A2=n_340 VDD=VDD VSS=VSS 
Xi_1236 AOI221_X2 $PINS ZN=n_1695 A=n_1697 B1=n_376 B2=n_378 C1=n_1709 
+ C2=n_1696 VDD=VDD VSS=VSS 
Xi_1235 NOR2_X1 $PINS ZN=n_1694 A1=n_1711 A2=n_1695 VDD=VDD VSS=VSS 
Xi_1234 NAND2_X1 $PINS ZN=n_1693 A1=n_379 A2=n_418 VDD=VDD VSS=VSS 
Xi_1233 NAND2_X1 $PINS ZN=n_1692 A1=n_419 A2=n_460 VDD=VDD VSS=VSS 
Xi_1232 INV_X1 $PINS ZN=n_1691 A=n_1692 VDD=VDD VSS=VSS 
Xi_1231 AOI21_X1 $PINS ZN=n_1690 A=n_1729 B1=n_1693 B2=n_1692 VDD=VDD VSS=VSS 
Xi_1230 AND2_X1 $PINS ZN=n_1689 A1=n_461 A2=n_504 VDD=VDD VSS=VSS 
Xi_1229 AOI221_X1 $PINS ZN=n_1688 A=n_1690 B1=n_505 B2=n_548 C1=n_1734 
+ C2=n_1689 VDD=VDD VSS=VSS 
Xi_1228 NAND2_X1 $PINS ZN=n_1687 A1=n_705 A2=n_738 VDD=VDD VSS=VSS 
Xi_1227 INV_X1 $PINS ZN=n_1686 A=n_1687 VDD=VDD VSS=VSS 
Xi_1226 AND2_X1 $PINS ZN=n_1685 A1=n_739 A2=n_770 VDD=VDD VSS=VSS 
Xi_1225 OAI21_X1 $PINS ZN=n_1684 A=n_1723 B1=n_1686 B2=n_1685 VDD=VDD VSS=VSS 
Xi_1224 NAND2_X1 $PINS ZN=n_1683 A1=n_771 A2=n_800 VDD=VDD VSS=VSS 
Xi_1223 INV_X1 $PINS ZN=n_1682 A=n_1683 VDD=VDD VSS=VSS 
Xi_1222 OAI21_X1 $PINS ZN=n_1681 A=n_1684 B1=n_1727 B2=n_1683 VDD=VDD VSS=VSS 
Xi_1221 AOI21_X1 $PINS ZN=n_1680 A=n_1681 B1=n_801 B2=n_828 VDD=VDD VSS=VSS 
Xi_1220 NAND2_X1 $PINS ZN=n_1679 A1=n_549 A2=n_590 VDD=VDD VSS=VSS 
Xi_1219 NAND2_X1 $PINS ZN=n_1678 A1=n_591 A2=n_630 VDD=VDD VSS=VSS 
Xi_1218 INV_X1 $PINS ZN=n_1677 A=n_1678 VDD=VDD VSS=VSS 
Xi_1217 AOI21_X1 $PINS ZN=n_1676 A=n_1715 B1=n_1679 B2=n_1678 VDD=VDD VSS=VSS 
Xi_1216 AND2_X1 $PINS ZN=n_1675 A1=n_631 A2=n_668 VDD=VDD VSS=VSS 
Xi_1215 AOI221_X1 $PINS ZN=n_1674 A=n_1676 B1=n_669 B2=n_704 C1=n_1720 
+ C2=n_1675 VDD=VDD VSS=VSS 
Xi_1214 OAI221_X1 $PINS ZN=n_1673 A=n_1680 B1=n_1722 B2=n_1674 C1=n_1712 
+ C2=n_1688 VDD=VDD VSS=VSS 
Xi_1213 NOR3_X2 $PINS ZN=n_1672 A1=n_1694 A2=n_1673 A3=n_1701 VDD=VDD VSS=VSS 
Xi_1212 NOR2_X1 $PINS ZN=n_1671 A1=n_901 A2=n_920 VDD=VDD VSS=VSS 
Xi_1211 NOR2_X1 $PINS ZN=n_1670 A1=n_855 A2=n_878 VDD=VDD VSS=VSS 
Xi_1210 NOR2_X1 $PINS ZN=n_1669 A1=n_879 A2=n_900 VDD=VDD VSS=VSS 
Xi_1209 OR3_X1 $PINS ZN=n_1668 A1=n_1671 A2=n_1669 A3=n_1670 VDD=VDD VSS=VSS 
Xi_1208 NOR2_X1 $PINS ZN=n_1667 A1=n_829 A2=n_854 VDD=VDD VSS=VSS 
Xi_1207 NOR3_X1 $PINS ZN=n_1666 A1=n_1668 A2=n_1667 A3=n_1672 VDD=VDD VSS=VSS 
Xi_1206 NAND2_X1 $PINS ZN=n_1665 A1=n_829 A2=n_854 VDD=VDD VSS=VSS 
Xi_1205 NAND2_X1 $PINS ZN=n_1664 A1=n_855 A2=n_878 VDD=VDD VSS=VSS 
Xi_1204 AOI21_X1 $PINS ZN=n_1663 A=n_1668 B1=n_1665 B2=n_1664 VDD=VDD VSS=VSS 
Xi_1203 AND2_X1 $PINS ZN=n_1662 A1=n_901 A2=n_920 VDD=VDD VSS=VSS 
Xi_1202 NAND2_X1 $PINS ZN=n_1661 A1=n_879 A2=n_900 VDD=VDD VSS=VSS 
Xi_1201 INV_X1 $PINS ZN=n_1660 A=n_1661 VDD=VDD VSS=VSS 
Xi_1200 NOR2_X1 $PINS ZN=n_1659 A1=n_1671 A2=n_1661 VDD=VDD VSS=VSS 
Xi_1199 NOR4_X1 $PINS ZN=n_1658 A1=n_1662 A2=n_1659 A3=n_1663 A4=n_1666 VDD=VDD 
+ VSS=VSS 
Xi_1198 NOR2_X1 $PINS ZN=n_1657 A1=n_969 A2=n_980 VDD=VDD VSS=VSS 
Xi_1197 NOR2_X1 $PINS ZN=n_1656 A1=n_939 A2=n_954 VDD=VDD VSS=VSS 
Xi_1196 NOR2_X1 $PINS ZN=n_1655 A1=n_955 A2=n_968 VDD=VDD VSS=VSS 
Xi_1195 OR3_X1 $PINS ZN=n_1654 A1=n_1657 A2=n_1655 A3=n_1656 VDD=VDD VSS=VSS 
Xi_1194 NOR2_X1 $PINS ZN=n_1653 A1=n_921 A2=n_938 VDD=VDD VSS=VSS 
Xi_1193 NOR3_X1 $PINS ZN=n_1652 A1=n_1654 A2=n_1653 A3=n_1658 VDD=VDD VSS=VSS 
Xi_1192 NAND2_X1 $PINS ZN=n_1651 A1=n_921 A2=n_938 VDD=VDD VSS=VSS 
Xi_1191 NAND2_X1 $PINS ZN=n_1650 A1=n_939 A2=n_954 VDD=VDD VSS=VSS 
Xi_1190 AOI21_X1 $PINS ZN=n_1649 A=n_1654 B1=n_1651 B2=n_1650 VDD=VDD VSS=VSS 
Xi_1189 AND2_X1 $PINS ZN=n_1648 A1=n_969 A2=n_980 VDD=VDD VSS=VSS 
Xi_1188 NAND2_X1 $PINS ZN=n_1647 A1=n_955 A2=n_968 VDD=VDD VSS=VSS 
Xi_1187 INV_X1 $PINS ZN=n_1646 A=n_1647 VDD=VDD VSS=VSS 
Xi_1186 NOR2_X1 $PINS ZN=n_1645 A1=n_1657 A2=n_1647 VDD=VDD VSS=VSS 
Xi_1185 NOR4_X1 $PINS ZN=n_1644 A1=n_1648 A2=n_1645 A3=n_1649 A4=n_1652 VDD=VDD 
+ VSS=VSS 
Xi_1184 NOR2_X1 $PINS ZN=n_1643 A1=n_1005 A2=n_1008 VDD=VDD VSS=VSS 
Xi_1183 NOR2_X1 $PINS ZN=n_1642 A1=n_991 A2=n_998 VDD=VDD VSS=VSS 
Xi_1182 NOR2_X1 $PINS ZN=n_1641 A1=n_999 A2=n_1004 VDD=VDD VSS=VSS 
Xi_1181 NOR2_X1 $PINS ZN=n_1640 A1=n_1642 A2=n_1641 VDD=VDD VSS=VSS 
Xi_1180 OAI21_X1 $PINS ZN=n_1639 A=n_1640 B1=n_1005 B2=n_1008 VDD=VDD VSS=VSS 
Xi_1179 NOR2_X1 $PINS ZN=n_1638 A1=n_981 A2=n_990 VDD=VDD VSS=VSS 
Xi_1178 NOR3_X1 $PINS ZN=n_1637 A1=n_1639 A2=n_1638 A3=n_1644 VDD=VDD VSS=VSS 
Xi_1177 NAND2_X1 $PINS ZN=n_1636 A1=n_981 A2=n_990 VDD=VDD VSS=VSS 
Xi_1176 NAND2_X1 $PINS ZN=n_1635 A1=n_991 A2=n_998 VDD=VDD VSS=VSS 
Xi_1175 INV_X1 $PINS ZN=n_1634 A=n_1635 VDD=VDD VSS=VSS 
Xi_1174 AOI21_X1 $PINS ZN=n_1633 A=n_1639 B1=n_1636 B2=n_1635 VDD=VDD VSS=VSS 
Xi_1173 AND2_X1 $PINS ZN=n_1632 A1=n_1005 A2=n_1008 VDD=VDD VSS=VSS 
Xi_1172 NAND2_X1 $PINS ZN=n_1631 A1=n_999 A2=n_1004 VDD=VDD VSS=VSS 
Xi_1171 INV_X1 $PINS ZN=n_1630 A=n_1631 VDD=VDD VSS=VSS 
Xi_1170 NOR2_X1 $PINS ZN=n_1629 A1=n_1643 A2=n_1631 VDD=VDD VSS=VSS 
Xi_1169 NOR4_X1 $PINS ZN=n_1628 A1=n_1632 A2=n_1629 A3=n_1633 A4=n_1637 VDD=VDD 
+ VSS=VSS 
Xi_1168 OAI21_X1 $PINS ZN=n_1627 A=n_1793 B1=n_1792 B2=n_1628 VDD=VDD VSS=VSS 
Xi_1167 OR2_X2 $PINS ZN=o_mantissa[47] A1=n_1011 A2=n_1627 VDD=VDD VSS=VSS 
Xi_1166 XNOR2_X1 $PINS ZN=o_mantissa[46] A=n_1011 B=n_1627 VDD=VDD VSS=VSS 
Xi_1165 AOI21_X1 $PINS ZN=n_1626 A=n_1792 B1=n_1009 B2=n_1010 VDD=VDD VSS=VSS 
Xi_1164 XNOR2_X1 $PINS ZN=o_mantissa[45] A=n_1628 B=n_1626 VDD=VDD VSS=VSS 
Xi_1163 NOR2_X1 $PINS ZN=n_1625 A1=n_1643 A2=n_1632 VDD=VDD VSS=VSS 
Xi_1162 OAI21_X1 $PINS ZN=n_1624 A=n_1636 B1=n_981 B2=n_990 VDD=VDD VSS=VSS 
Xi_1161 AOI21_X1 $PINS ZN=n_1623 A=n_1638 B1=n_1644 B2=n_1636 VDD=VDD VSS=VSS 
Xi_1160 NOR2_X1 $PINS ZN=n_1622 A1=n_1642 A2=n_1634 VDD=VDD VSS=VSS 
Xi_1159 NAND2_X1 $PINS ZN=n_1621 A1=n_1631 A2=n_1622 VDD=VDD VSS=VSS 
Xi_1158 OAI22_X1 $PINS ZN=n_1620 A1=n_1623 A2=n_1621 B1=n_1640 B2=n_1630 
+ VDD=VDD VSS=VSS 
Xi_1157 XNOR2_X1 $PINS ZN=o_mantissa[44] A=n_1625 B=n_1620 VDD=VDD VSS=VSS 
Xi_1156 NOR2_X1 $PINS ZN=n_1619 A1=n_1641 A2=n_1630 VDD=VDD VSS=VSS 
Xi_1155 OAI22_X1 $PINS ZN=n_1618 A1=n_991 A2=n_998 B1=n_1634 B2=n_1623 VDD=VDD 
+ VSS=VSS 
Xi_1154 XNOR2_X1 $PINS ZN=o_mantissa[43] A=n_1619 B=n_1618 VDD=VDD VSS=VSS 
Xi_1153 XOR2_X1 $PINS Z=o_mantissa[42] A=n_1623 B=n_1622 VDD=VDD VSS=VSS 
Xi_1152 XOR2_X1 $PINS Z=o_mantissa[41] A=n_1644 B=n_1624 VDD=VDD VSS=VSS 
Xi_1151 NOR2_X1 $PINS ZN=n_1617 A1=n_1657 A2=n_1648 VDD=VDD VSS=VSS 
Xi_1150 OAI21_X1 $PINS ZN=n_1616 A=n_1651 B1=n_921 B2=n_938 VDD=VDD VSS=VSS 
Xi_1149 AOI21_X1 $PINS ZN=n_1615 A=n_1653 B1=n_1658 B2=n_1651 VDD=VDD VSS=VSS 
Xi_1148 INV_X1 $PINS ZN=n_1614 A=n_1615 VDD=VDD VSS=VSS 
Xi_1147 AOI21_X1 $PINS ZN=n_1613 A=n_1656 B1=n_1650 B2=n_1614 VDD=VDD VSS=VSS 
Xi_1146 AOI21_X1 $PINS ZN=n_1612 A=n_1656 B1=n_939 B2=n_954 VDD=VDD VSS=VSS 
Xi_1145 OAI22_X1 $PINS ZN=n_1611 A1=n_955 A2=n_968 B1=n_1646 B2=n_1613 VDD=VDD 
+ VSS=VSS 
Xi_1144 XNOR2_X1 $PINS ZN=o_mantissa[40] A=n_1617 B=n_1611 VDD=VDD VSS=VSS 
Xi_1143 NOR2_X1 $PINS ZN=n_1610 A1=n_1655 A2=n_1646 VDD=VDD VSS=VSS 
Xi_1142 XOR2_X1 $PINS Z=o_mantissa[39] A=n_1613 B=n_1610 VDD=VDD VSS=VSS 
Xi_1141 XOR2_X1 $PINS Z=o_mantissa[38] A=n_1615 B=n_1612 VDD=VDD VSS=VSS 
Xi_1140 XOR2_X1 $PINS Z=o_mantissa[37] A=n_1658 B=n_1616 VDD=VDD VSS=VSS 
Xi_1139 NOR2_X1 $PINS ZN=n_1609 A1=n_1671 A2=n_1662 VDD=VDD VSS=VSS 
Xi_1138 OAI21_X1 $PINS ZN=n_1608 A=n_1665 B1=n_829 B2=n_854 VDD=VDD VSS=VSS 
Xi_1137 AOI21_X1 $PINS ZN=n_1607 A=n_1667 B1=n_1672 B2=n_1665 VDD=VDD VSS=VSS 
Xi_1136 INV_X1 $PINS ZN=n_1606 A=n_1607 VDD=VDD VSS=VSS 
Xi_1135 AOI21_X1 $PINS ZN=n_1605 A=n_1670 B1=n_1664 B2=n_1606 VDD=VDD VSS=VSS 
Xi_1134 AOI21_X1 $PINS ZN=n_1604 A=n_1670 B1=n_855 B2=n_878 VDD=VDD VSS=VSS 
Xi_1133 OAI22_X1 $PINS ZN=n_1603 A1=n_879 A2=n_900 B1=n_1660 B2=n_1605 VDD=VDD 
+ VSS=VSS 
Xi_1132 XNOR2_X1 $PINS ZN=o_mantissa[36] A=n_1609 B=n_1603 VDD=VDD VSS=VSS 
Xi_1131 NOR2_X1 $PINS ZN=n_1602 A1=n_1669 A2=n_1660 VDD=VDD VSS=VSS 
Xi_1130 XOR2_X1 $PINS Z=o_mantissa[35] A=n_1605 B=n_1602 VDD=VDD VSS=VSS 
Xi_1129 XOR2_X1 $PINS Z=o_mantissa[34] A=n_1607 B=n_1604 VDD=VDD VSS=VSS 
Xi_1128 XOR2_X1 $PINS Z=o_mantissa[33] A=n_1672 B=n_1608 VDD=VDD VSS=VSS 
Xi_1127 AOI21_X1 $PINS ZN=n_1601 A=n_1727 B1=n_801 B2=n_828 VDD=VDD VSS=VSS 
Xi_1126 OAI21_X1 $PINS ZN=n_1600 A=n_1695 B1=n_1737 B2=n_1702 VDD=VDD VSS=VSS 
Xi_1125 INV_X1 $PINS ZN=n_1599 A=n_1600 VDD=VDD VSS=VSS 
Xi_1124 OAI21_X1 $PINS ZN=n_1598 A=n_1688 B1=n_1728 B2=n_1599 VDD=VDD VSS=VSS 
Xi_1123 INV_X1 $PINS ZN=n_1597 A=n_1598 VDD=VDD VSS=VSS 
Xi_1122 OAI21_X1 $PINS ZN=n_1596 A=n_1674 B1=n_1713 B2=n_1597 VDD=VDD VSS=VSS 
Xi_1121 OAI21_X1 $PINS ZN=n_1595 A=n_1687 B1=n_705 B2=n_738 VDD=VDD VSS=VSS 
Xi_1120 OAI22_X1 $PINS ZN=n_1594 A1=n_705 A2=n_738 B1=n_1686 B2=n_1596 VDD=VDD 
+ VSS=VSS 
Xi_1119 INV_X1 $PINS ZN=n_1593 A=n_1594 VDD=VDD VSS=VSS 
Xi_1118 NOR2_X1 $PINS ZN=n_1592 A1=n_1726 A2=n_1685 VDD=VDD VSS=VSS 
Xi_1117 NAND3_X1 $PINS ZN=n_1591 A1=n_1683 A2=n_1592 A3=n_1594 VDD=VDD VSS=VSS 
Xi_1116 OAI21_X1 $PINS ZN=n_1590 A=n_1591 B1=n_1724 B2=n_1682 VDD=VDD VSS=VSS 
Xi_1115 XNOR2_X1 $PINS ZN=o_mantissa[32] A=n_1601 B=n_1590 VDD=VDD VSS=VSS 
Xi_1114 NOR2_X1 $PINS ZN=n_1589 A1=n_1725 A2=n_1682 VDD=VDD VSS=VSS 
Xi_1113 OAI22_X1 $PINS ZN=n_1588 A1=n_739 A2=n_770 B1=n_1685 B2=n_1593 VDD=VDD 
+ VSS=VSS 
Xi_1112 XNOR2_X1 $PINS ZN=o_mantissa[31] A=n_1589 B=n_1588 VDD=VDD VSS=VSS 
Xi_1111 XOR2_X1 $PINS Z=o_mantissa[30] A=n_1593 B=n_1592 VDD=VDD VSS=VSS 
Xi_1110 XNOR2_X1 $PINS ZN=o_mantissa[29] A=n_1596 B=n_1595 VDD=VDD VSS=VSS 
Xi_1109 AOI21_X1 $PINS ZN=n_1587 A=n_1721 B1=n_669 B2=n_704 VDD=VDD VSS=VSS 
Xi_1108 OAI21_X1 $PINS ZN=n_1586 A=n_1679 B1=n_549 B2=n_590 VDD=VDD VSS=VSS 
Xi_1107 AOI21_X1 $PINS ZN=n_1585 A=n_1714 B1=n_1679 B2=n_1597 VDD=VDD VSS=VSS 
Xi_1106 OAI21_X1 $PINS ZN=n_1584 A=n_1718 B1=n_1677 B2=n_1585 VDD=VDD VSS=VSS 
Xi_1105 INV_X1 $PINS ZN=n_1583 A=n_1584 VDD=VDD VSS=VSS 
Xi_1104 NOR2_X1 $PINS ZN=n_1582 A1=n_1719 A2=n_1677 VDD=VDD VSS=VSS 
Xi_1103 OAI21_X1 $PINS ZN=n_1581 A=n_1716 B1=n_1675 B2=n_1583 VDD=VDD VSS=VSS 
Xi_1102 XNOR2_X1 $PINS ZN=o_mantissa[28] A=n_1587 B=n_1581 VDD=VDD VSS=VSS 
Xi_1101 NOR2_X1 $PINS ZN=n_1580 A1=n_1717 A2=n_1675 VDD=VDD VSS=VSS 
Xi_1100 XOR2_X1 $PINS Z=o_mantissa[27] A=n_1583 B=n_1580 VDD=VDD VSS=VSS 
Xi_1099 XOR2_X1 $PINS Z=o_mantissa[26] A=n_1585 B=n_1582 VDD=VDD VSS=VSS 
Xi_1098 XOR2_X1 $PINS Z=o_mantissa[25] A=n_1597 B=n_1586 VDD=VDD VSS=VSS 
Xi_1097 AOI21_X1 $PINS ZN=n_1579 A=n_1735 B1=n_505 B2=n_548 VDD=VDD VSS=VSS 
Xi_1096 OAI21_X1 $PINS ZN=n_1578 A=n_1693 B1=n_379 B2=n_418 VDD=VDD VSS=VSS 
Xi_1095 AOI21_X1 $PINS ZN=n_1577 A=n_1736 B1=n_1693 B2=n_1599 VDD=VDD VSS=VSS 
Xi_1094 OAI21_X1 $PINS ZN=n_1576 A=n_1732 B1=n_1691 B2=n_1577 VDD=VDD VSS=VSS 
Xi_1093 INV_X1 $PINS ZN=n_1575 A=n_1576 VDD=VDD VSS=VSS 
Xi_1092 NOR2_X1 $PINS ZN=n_1574 A1=n_1733 A2=n_1691 VDD=VDD VSS=VSS 
Xi_1091 OAI21_X1 $PINS ZN=n_1573 A=n_1730 B1=n_1689 B2=n_1575 VDD=VDD VSS=VSS 
Xi_1090 XNOR2_X1 $PINS ZN=o_mantissa[24] A=n_1579 B=n_1573 VDD=VDD VSS=VSS 