* SPICE NETLIST
***************************************

.SUBCKT MGC_via2_2x1_HH_1
** N=1 EP=0 IP=0 FDC=0
.ENDS
***************************************
.SUBCKT via1_5
** N=1 EP=0 IP=0 FDC=0
.ENDS
***************************************
.SUBCKT via2_7
** N=1 EP=0 IP=0 FDC=0
.ENDS
***************************************
.SUBCKT ICV_1
** N=1 EP=0 IP=2 FDC=0
.ENDS
***************************************
.SUBCKT WELLTAP
** N=2 EP=0 IP=0 FDC=0
*.CALIBRE ISOLATED NETS: VSS VDD
.ENDS
***************************************
.SUBCKT MGC_via1_1x2_VV_0
** N=1 EP=0 IP=0 FDC=0
.ENDS
***************************************
.SUBCKT MGC_via2_2x1_HH_0
** N=1 EP=0 IP=0 FDC=0
.ENDS
***************************************
.SUBCKT MGC_via2_2x1_HH
** N=1 EP=0 IP=0 FDC=0
.ENDS
***************************************
.SUBCKT FILLCELL_X2
** N=3 EP=0 IP=0 FDC=0
*.CALIBRE ISOLATED NETS: VSS VDD
.ENDS
***************************************
.SUBCKT ICV_2
** N=1 EP=0 IP=2 FDC=0
.ENDS
***************************************
.SUBCKT FILLCELL_X4
** N=3 EP=0 IP=0 FDC=0
*.CALIBRE ISOLATED NETS: VSS VDD
.ENDS
***************************************
.SUBCKT ICV_3
** N=2 EP=0 IP=6 FDC=0
.ENDS
***************************************
.SUBCKT ICV_4
** N=3 EP=0 IP=6 FDC=0
.ENDS
***************************************
.SUBCKT ICV_5
** N=1 EP=0 IP=2 FDC=0
.ENDS
***************************************
.SUBCKT FILLCELL_X8
** N=3 EP=0 IP=0 FDC=0
*.CALIBRE ISOLATED NETS: VSS VDD
.ENDS
***************************************
.SUBCKT MGC_via1_1x2_VV_1
** N=1 EP=0 IP=0 FDC=0
.ENDS
***************************************
.SUBCKT CLKGATETST_X1 SE E CK VDD VSS GCK 7
** N=19 EP=7 IP=0 FDC=24
M0 8 SE VSS 7 NMOS_VTL L=5e-08 W=2.1e-07 AD=2.94e-14 AS=2.205e-14 PD=7e-07 PS=6.3e-07 $X=145 $Y=205 $D=1
M1 VSS E 8 7 NMOS_VTL L=5e-08 W=2.1e-07 AD=3.395e-14 AS=2.94e-14 PD=8.3e-07 PS=7e-07 $X=335 $Y=205 $D=1
M2 17 8 VSS 7 NMOS_VTL L=5e-08 W=2.75e-07 AD=3.85e-14 AS=3.395e-14 PD=8.3e-07 PS=8.3e-07 $X=525 $Y=140 $D=1
M3 9 12 17 7 NMOS_VTL L=5e-08 W=2.75e-07 AD=2.915e-14 AS=3.85e-14 PD=9.1e-07 PS=8.3e-07 $X=715 $Y=140 $D=1
M4 18 10 9 7 NMOS_VTL L=5e-08 W=9e-08 AD=1.26e-14 AS=2.915e-14 PD=4.6e-07 PS=9.1e-07 $X=945 $Y=300 $D=1
M5 VSS 11 18 7 NMOS_VTL L=5e-08 W=9e-08 AD=2.1e-14 AS=1.26e-14 PD=7e-07 PS=4.6e-07 $X=1135 $Y=300 $D=1
M6 10 12 VSS 7 NMOS_VTL L=5e-08 W=2.1e-07 AD=2.205e-14 AS=2.1e-14 PD=6.3e-07 PS=7e-07 $X=1325 $Y=180 $D=1
M7 VSS 9 11 7 NMOS_VTL L=5e-08 W=2.1e-07 AD=2.94e-14 AS=2.205e-14 PD=7e-07 PS=6.3e-07 $X=1665 $Y=315 $D=1
M8 12 CK VSS 7 NMOS_VTL L=5e-08 W=2.1e-07 AD=2.205e-14 AS=2.94e-14 PD=6.3e-07 PS=7e-07 $X=1855 $Y=315 $D=1
M9 19 CK 13 7 NMOS_VTL L=5e-08 W=2.1e-07 AD=2.94e-14 AS=2.205e-14 PD=7e-07 PS=6.3e-07 $X=2240 $Y=295 $D=1
M10 VSS 9 19 7 NMOS_VTL L=5e-08 W=2.1e-07 AD=2.835e-14 AS=2.94e-14 PD=7e-07 PS=7e-07 $X=2430 $Y=295 $D=1
M11 GCK 13 VSS 7 NMOS_VTL L=5e-08 W=1.95e-07 AD=2.0475e-14 AS=2.835e-14 PD=6e-07 PS=7e-07 $X=2620 $Y=310 $D=1
M12 14 SE 8 VDD PMOS_VTL L=5e-08 W=3.15e-07 AD=4.41e-14 AS=3.3075e-14 PD=9.1e-07 PS=8.4e-07 $X=145 $Y=890 $D=0
M13 VDD E 14 VDD PMOS_VTL L=5e-08 W=3.15e-07 AD=5.145e-14 AS=4.41e-14 PD=1.12e-06 PS=9.1e-07 $X=335 $Y=890 $D=0
M14 15 8 VDD VDD PMOS_VTL L=5e-08 W=4.2e-07 AD=5.88e-14 AS=5.145e-14 PD=1.12e-06 PS=1.12e-06 $X=525 $Y=890 $D=0
M15 9 10 15 VDD PMOS_VTL L=5e-08 W=4.2e-07 AD=3.93e-14 AS=5.88e-14 PD=1.2e-06 PS=1.12e-06 $X=715 $Y=890 $D=0
M16 16 12 9 VDD PMOS_VTL L=5e-08 W=9e-08 AD=1.26e-14 AS=3.93e-14 PD=4.6e-07 PS=1.2e-06 $X=945 $Y=990 $D=0
M17 VDD 11 16 VDD PMOS_VTL L=5e-08 W=9e-08 AD=2.835e-14 AS=1.26e-14 PD=9.1e-07 PS=4.6e-07 $X=1135 $Y=990 $D=0
M18 10 12 VDD VDD PMOS_VTL L=5e-08 W=3.15e-07 AD=3.3075e-14 AS=2.835e-14 PD=8.4e-07 PS=9.1e-07 $X=1325 $Y=990 $D=0
M19 VDD 9 11 VDD PMOS_VTL L=5e-08 W=3.15e-07 AD=4.41e-14 AS=3.3075e-14 PD=9.1e-07 PS=8.4e-07 $X=1665 $Y=870 $D=0
M20 12 CK VDD VDD PMOS_VTL L=5e-08 W=3.15e-07 AD=3.3075e-14 AS=4.41e-14 PD=8.4e-07 PS=9.1e-07 $X=1855 $Y=870 $D=0
M21 13 CK VDD VDD PMOS_VTL L=5e-08 W=3.15e-07 AD=4.41e-14 AS=3.3075e-14 PD=9.1e-07 PS=8.4e-07 $X=2240 $Y=870 $D=0
M22 VDD 9 13 VDD PMOS_VTL L=5e-08 W=3.15e-07 AD=6.615e-14 AS=4.41e-14 PD=1.54e-06 PS=9.1e-07 $X=2430 $Y=870 $D=0
M23 GCK 13 VDD VDD PMOS_VTL L=5e-08 W=6.3e-07 AD=6.615e-14 AS=6.615e-14 PD=1.47e-06 PS=1.54e-06 $X=2620 $Y=680 $D=0
.ENDS
***************************************
.SUBCKT MGC_via1_2x1_HH_1
** N=1 EP=0 IP=0 FDC=0
.ENDS
***************************************
.SUBCKT MGC_via1_1x2_VV
** N=1 EP=0 IP=0 FDC=0
.ENDS
***************************************
.SUBCKT MGC_via1_1x2_HV_1
** N=1 EP=0 IP=0 FDC=0
.ENDS
***************************************
.SUBCKT OR2_X1 A1 A2 VSS VDD ZN
** N=7 EP=5 IP=0 FDC=6
M0 6 A1 VSS VSS NMOS_VTL L=5e-08 W=2.1e-07 AD=2.94e-14 AS=2.205e-14 PD=7e-07 PS=6.3e-07 $X=145 $Y=90 $D=1
M1 VSS A2 6 VSS NMOS_VTL L=5e-08 W=2.1e-07 AD=4.375e-14 AS=2.94e-14 PD=1.11e-06 PS=7e-07 $X=335 $Y=90 $D=1
M2 ZN 6 VSS VSS NMOS_VTL L=5e-08 W=4.15e-07 AD=4.3575e-14 AS=4.375e-14 PD=1.04e-06 PS=1.11e-06 $X=525 $Y=90 $D=1
M3 7 A1 6 VDD PMOS_VTL L=5e-08 W=3.15e-07 AD=4.41e-14 AS=3.3075e-14 PD=9.1e-07 PS=8.4e-07 $X=145 $Y=995 $D=0
M4 VDD A2 7 VDD PMOS_VTL L=5e-08 W=3.15e-07 AD=6.615e-14 AS=4.41e-14 PD=1.54e-06 PS=9.1e-07 $X=335 $Y=995 $D=0
M5 ZN 6 VDD VDD PMOS_VTL L=5e-08 W=6.3e-07 AD=6.615e-14 AS=6.615e-14 PD=1.47e-06 PS=1.54e-06 $X=525 $Y=680 $D=0
.ENDS
***************************************
.SUBCKT MGC_via1_2x1_VH_0
** N=1 EP=0 IP=0 FDC=0
.ENDS
***************************************
.SUBCKT ICV_6
** N=1 EP=0 IP=2 FDC=0
.ENDS
***************************************
.SUBCKT ICV_7
** N=1 EP=0 IP=2 FDC=0
.ENDS
***************************************
.SUBCKT DFF_X1 D CK VSS VDD Q
** N=20 EP=5 IP=0 FDC=28
M0 VSS 9 6 VSS NMOS_VTL L=5e-08 W=2.1e-07 AD=2.1e-14 AS=2.205e-14 PD=7e-07 PS=6.3e-07 $X=160 $Y=180 $D=1
M1 17 8 VSS VSS NMOS_VTL L=5e-08 W=9e-08 AD=1.26e-14 AS=2.1e-14 PD=4.6e-07 PS=7e-07 $X=350 $Y=300 $D=1
M2 7 6 17 VSS NMOS_VTL L=5e-08 W=9e-08 AD=2.6e-14 AS=1.26e-14 PD=8.4e-07 PS=4.6e-07 $X=540 $Y=300 $D=1
M3 18 9 7 VSS NMOS_VTL L=5e-08 W=2.75e-07 AD=3.85e-14 AS=2.6e-14 PD=8.3e-07 PS=8.4e-07 $X=735 $Y=180 $D=1
M4 VSS D 18 VSS NMOS_VTL L=5e-08 W=2.75e-07 AD=3.395e-14 AS=3.85e-14 PD=8.3e-07 PS=8.3e-07 $X=925 $Y=180 $D=1
M5 8 7 VSS VSS NMOS_VTL L=5e-08 W=2.1e-07 AD=2.205e-14 AS=3.395e-14 PD=6.3e-07 PS=8.3e-07 $X=1115 $Y=180 $D=1
M6 VSS CK 9 VSS NMOS_VTL L=5e-08 W=2.1e-07 AD=2.94e-14 AS=2.205e-14 PD=7e-07 PS=6.3e-07 $X=1530 $Y=255 $D=1
M7 19 7 VSS VSS NMOS_VTL L=5e-08 W=2.1e-07 AD=2.94e-14 AS=2.94e-14 PD=7e-07 PS=7e-07 $X=1720 $Y=255 $D=1
M8 10 6 19 VSS NMOS_VTL L=5e-08 W=2.1e-07 AD=2.1e-14 AS=2.94e-14 PD=7e-07 PS=7e-07 $X=1910 $Y=255 $D=1
M9 20 9 10 VSS NMOS_VTL L=5e-08 W=9e-08 AD=1.305e-14 AS=2.1e-14 PD=4.7e-07 PS=7e-07 $X=2100 $Y=300 $D=1
M10 VSS 12 20 VSS NMOS_VTL L=5e-08 W=9e-08 AD=2.1e-14 AS=1.305e-14 PD=7e-07 PS=4.7e-07 $X=2295 $Y=300 $D=1
M11 12 10 VSS VSS NMOS_VTL L=5e-08 W=2.1e-07 AD=2.205e-14 AS=2.1e-14 PD=6.3e-07 PS=7e-07 $X=2485 $Y=255 $D=1
M12 VSS 10 QN VSS NMOS_VTL L=5e-08 W=4.15e-07 AD=5.81e-14 AS=4.3575e-14 PD=1.11e-06 PS=1.04e-06 $X=2825 $Y=90 $D=1
M13 Q 12 VSS VSS NMOS_VTL L=5e-08 W=4.15e-07 AD=4.3575e-14 AS=5.81e-14 PD=1.04e-06 PS=1.11e-06 $X=3015 $Y=90 $D=1
M14 VDD 9 6 VDD PMOS_VTL L=5e-08 W=3.15e-07 AD=2.835e-14 AS=3.3075e-14 PD=9.1e-07 PS=8.4e-07 $X=160 $Y=785 $D=0
M15 13 8 VDD VDD PMOS_VTL L=5e-08 W=9e-08 AD=1.26e-14 AS=2.835e-14 PD=4.6e-07 PS=9.1e-07 $X=350 $Y=1010 $D=0
M16 7 9 13 VDD PMOS_VTL L=5e-08 W=9e-08 AD=3.615e-14 AS=1.26e-14 PD=1.13e-06 PS=4.6e-07 $X=540 $Y=1010 $D=0
M17 14 6 7 VDD PMOS_VTL L=5e-08 W=4.2e-07 AD=5.88e-14 AS=3.615e-14 PD=1.12e-06 PS=1.13e-06 $X=735 $Y=765 $D=0
M18 VDD D 14 VDD PMOS_VTL L=5e-08 W=4.2e-07 AD=5.145e-14 AS=5.88e-14 PD=1.12e-06 PS=1.12e-06 $X=925 $Y=765 $D=0
M19 8 7 VDD VDD PMOS_VTL L=5e-08 W=3.15e-07 AD=5.67e-14 AS=5.145e-14 PD=9.9e-07 PS=1.12e-06 $X=1115 $Y=870 $D=0
M20 VDD CK 9 VDD PMOS_VTL L=5e-08 W=3.15e-07 AD=4.41e-14 AS=3.3075e-14 PD=9.1e-07 PS=8.4e-07 $X=1530 $Y=870 $D=0
M21 15 7 VDD VDD PMOS_VTL L=5e-08 W=3.15e-07 AD=4.41e-14 AS=4.41e-14 PD=9.1e-07 PS=9.1e-07 $X=1720 $Y=870 $D=0
M22 10 9 15 VDD PMOS_VTL L=5e-08 W=3.15e-07 AD=2.835e-14 AS=4.41e-14 PD=9.1e-07 PS=9.1e-07 $X=1910 $Y=870 $D=0
M23 16 6 10 VDD PMOS_VTL L=5e-08 W=9e-08 AD=1.305e-14 AS=2.835e-14 PD=4.7e-07 PS=9.1e-07 $X=2100 $Y=1095 $D=0
M24 VDD 12 16 VDD PMOS_VTL L=5e-08 W=9e-08 AD=2.835e-14 AS=1.305e-14 PD=9.1e-07 PS=4.7e-07 $X=2295 $Y=1095 $D=0
M25 12 10 VDD VDD PMOS_VTL L=5e-08 W=3.15e-07 AD=3.3075e-14 AS=2.835e-14 PD=8.4e-07 PS=9.1e-07 $X=2485 $Y=870 $D=0
M26 VDD 10 QN VDD PMOS_VTL L=5e-08 W=6.3e-07 AD=8.82e-14 AS=6.615e-14 PD=1.54e-06 PS=1.47e-06 $X=2825 $Y=680 $D=0
M27 Q 12 VDD VDD PMOS_VTL L=5e-08 W=6.3e-07 AD=6.615e-14 AS=8.82e-14 PD=1.47e-06 PS=1.54e-06 $X=3015 $Y=680 $D=0
.ENDS
***************************************
.SUBCKT ICV_8
** N=2 EP=0 IP=2 FDC=0
.ENDS
***************************************
.SUBCKT AND2_X1 A1 A2 VSS VDD ZN 6
** N=8 EP=6 IP=0 FDC=6
M0 8 A1 7 6 NMOS_VTL L=5e-08 W=2.1e-07 AD=2.94e-14 AS=2.205e-14 PD=7e-07 PS=6.3e-07 $X=145 $Y=90 $D=1
M1 VSS A2 8 6 NMOS_VTL L=5e-08 W=2.1e-07 AD=4.375e-14 AS=2.94e-14 PD=1.11e-06 PS=7e-07 $X=335 $Y=90 $D=1
M2 ZN 7 VSS 6 NMOS_VTL L=5e-08 W=4.15e-07 AD=4.3575e-14 AS=4.375e-14 PD=1.04e-06 PS=1.11e-06 $X=525 $Y=90 $D=1
M3 7 A1 VDD VDD PMOS_VTL L=5e-08 W=3.15e-07 AD=4.41e-14 AS=3.3075e-14 PD=9.1e-07 PS=8.4e-07 $X=145 $Y=995 $D=0
M4 VDD A2 7 VDD PMOS_VTL L=5e-08 W=3.15e-07 AD=6.615e-14 AS=4.41e-14 PD=1.54e-06 PS=9.1e-07 $X=335 $Y=995 $D=0
M5 ZN 7 VDD VDD PMOS_VTL L=5e-08 W=6.3e-07 AD=6.615e-14 AS=6.615e-14 PD=1.47e-06 PS=1.54e-06 $X=525 $Y=680 $D=0
.ENDS
***************************************
.SUBCKT via2_5
** N=1 EP=0 IP=0 FDC=0
.ENDS
***************************************
.SUBCKT ICV_9
** N=1 EP=0 IP=2 FDC=0
.ENDS
***************************************
.SUBCKT MGC_via1_1x2_HV_0
** N=1 EP=0 IP=0 FDC=0
.ENDS
***************************************
.SUBCKT OAI21_X1 B2 B1 ZN A VSS VDD
** N=8 EP=6 IP=0 FDC=6
M0 ZN B2 7 VSS NMOS_VTL L=5e-08 W=4.15e-07 AD=5.81e-14 AS=4.3575e-14 PD=1.11e-06 PS=1.04e-06 $X=170 $Y=90 $D=1
M1 7 B1 ZN VSS NMOS_VTL L=5e-08 W=4.15e-07 AD=5.81e-14 AS=5.81e-14 PD=1.11e-06 PS=1.11e-06 $X=360 $Y=90 $D=1
M2 VSS A 7 VSS NMOS_VTL L=5e-08 W=4.15e-07 AD=4.3575e-14 AS=5.81e-14 PD=1.04e-06 PS=1.11e-06 $X=550 $Y=90 $D=1
M3 8 B2 VDD VDD PMOS_VTL L=5e-08 W=6.3e-07 AD=8.82e-14 AS=6.615e-14 PD=1.54e-06 PS=1.47e-06 $X=170 $Y=680 $D=0
M4 ZN B1 8 VDD PMOS_VTL L=5e-08 W=6.3e-07 AD=8.82e-14 AS=8.82e-14 PD=1.54e-06 PS=1.54e-06 $X=360 $Y=680 $D=0
M5 VDD A ZN VDD PMOS_VTL L=5e-08 W=6.3e-07 AD=6.615e-14 AS=8.82e-14 PD=1.47e-06 PS=1.54e-06 $X=550 $Y=680 $D=0
.ENDS
***************************************
.SUBCKT MGC_via1_1x2_HV
** N=1 EP=0 IP=0 FDC=0
.ENDS
***************************************
.SUBCKT FILLCELL_X32
** N=2 EP=0 IP=0 FDC=0
*.CALIBRE ISOLATED NETS: VSS VDD
.ENDS
***************************************
.SUBCKT INV_X1 A VSS VDD ZN 5
** N=5 EP=5 IP=0 FDC=2
M0 ZN A VSS 5 NMOS_VTL L=5e-08 W=4.15e-07 AD=4.3575e-14 AS=4.3575e-14 PD=1.04e-06 PS=1.04e-06 $X=145 $Y=90 $D=1
M1 ZN A VDD VDD PMOS_VTL L=5e-08 W=6.3e-07 AD=6.615e-14 AS=6.615e-14 PD=1.47e-06 PS=1.47e-06 $X=145 $Y=680 $D=0
.ENDS
***************************************
.SUBCKT MGC_via2_2x1_VH_0
** N=1 EP=0 IP=0 FDC=0
.ENDS
***************************************
.SUBCKT MGC_via2_1x2_VV_0
** N=1 EP=0 IP=0 FDC=0
.ENDS
***************************************
.SUBCKT MGC_via2_1x2_VV
** N=1 EP=0 IP=0 FDC=0
.ENDS
***************************************
.SUBCKT FILLCELL_X16
** N=3 EP=0 IP=0 FDC=0
*.CALIBRE ISOLATED NETS: VSS VDD
.ENDS
***************************************
.SUBCKT MGC_via1_2x1_HH_0
** N=1 EP=0 IP=0 FDC=0
.ENDS
***************************************
.SUBCKT HA_X1 S B A VSS VDD CO 7
** N=13 EP=7 IP=0 FDC=16
M0 12 B VSS 7 NMOS_VTL L=5e-08 W=4.15e-07 AD=5.81e-14 AS=4.3575e-14 PD=1.11e-06 PS=1.04e-06 $X=185 $Y=90 $D=1
M1 S A 12 7 NMOS_VTL L=5e-08 W=4.15e-07 AD=5.81e-14 AS=5.81e-14 PD=1.11e-06 PS=1.11e-06 $X=375 $Y=90 $D=1
M2 VSS 9 S 7 NMOS_VTL L=5e-08 W=4.15e-07 AD=4.48e-14 AS=5.81e-14 PD=1.12e-06 PS=1.11e-06 $X=565 $Y=90 $D=1
M3 9 B VSS 7 NMOS_VTL L=5e-08 W=2.1e-07 AD=2.94e-14 AS=4.48e-14 PD=7e-07 PS=1.12e-06 $X=760 $Y=90 $D=1
M4 VSS A 9 7 NMOS_VTL L=5e-08 W=2.1e-07 AD=2.205e-14 AS=2.94e-14 PD=6.3e-07 PS=7e-07 $X=950 $Y=90 $D=1
M5 13 A 10 7 NMOS_VTL L=5e-08 W=2.1e-07 AD=2.94e-14 AS=2.205e-14 PD=7e-07 PS=6.3e-07 $X=1320 $Y=90 $D=1
M6 VSS B 13 7 NMOS_VTL L=5e-08 W=2.1e-07 AD=4.375e-14 AS=2.94e-14 PD=1.11e-06 PS=7e-07 $X=1510 $Y=90 $D=1
M7 CO 10 VSS 7 NMOS_VTL L=5e-08 W=4.15e-07 AD=4.3575e-14 AS=4.375e-14 PD=1.04e-06 PS=1.11e-06 $X=1700 $Y=90 $D=1
M8 S B 8 VDD PMOS_VTL L=5e-08 W=6.3e-07 AD=8.82e-14 AS=6.615e-14 PD=1.54e-06 PS=1.47e-06 $X=185 $Y=680 $D=0
M9 8 A S VDD PMOS_VTL L=5e-08 W=6.3e-07 AD=8.82e-14 AS=8.82e-14 PD=1.54e-06 PS=1.54e-06 $X=375 $Y=680 $D=0
M10 VDD 9 8 VDD PMOS_VTL L=5e-08 W=6.3e-07 AD=6.7725e-14 AS=8.82e-14 PD=1.55e-06 PS=1.54e-06 $X=565 $Y=680 $D=0
M11 11 B VDD VDD PMOS_VTL L=5e-08 W=3.15e-07 AD=4.41e-14 AS=6.7725e-14 PD=9.1e-07 PS=1.55e-06 $X=760 $Y=870 $D=0
M12 9 A 11 VDD PMOS_VTL L=5e-08 W=3.15e-07 AD=3.3075e-14 AS=4.41e-14 PD=8.4e-07 PS=9.1e-07 $X=950 $Y=870 $D=0
M13 10 A VDD VDD PMOS_VTL L=5e-08 W=3.15e-07 AD=4.41e-14 AS=3.3075e-14 PD=9.1e-07 PS=8.4e-07 $X=1320 $Y=870 $D=0
M14 VDD B 10 VDD PMOS_VTL L=5e-08 W=3.15e-07 AD=6.615e-14 AS=4.41e-14 PD=1.54e-06 PS=9.1e-07 $X=1510 $Y=870 $D=0
M15 CO 10 VDD VDD PMOS_VTL L=5e-08 W=6.3e-07 AD=6.615e-14 AS=6.615e-14 PD=1.47e-06 PS=1.54e-06 $X=1700 $Y=680 $D=0
.ENDS
***************************************
.SUBCKT via1_7
** N=1 EP=0 IP=0 FDC=0
.ENDS
***************************************
.SUBCKT MGC_via2_1x2_VH_1
** N=1 EP=0 IP=0 FDC=0
.ENDS
***************************************
.SUBCKT MGC_via2_2x1_VH
** N=1 EP=0 IP=0 FDC=0
.ENDS
***************************************
.SUBCKT INV_X2 A ZN VSS VDD
** N=4 EP=4 IP=0 FDC=4
M0 ZN A VSS VSS NMOS_VTL L=5e-08 W=4.15e-07 AD=5.81e-14 AS=4.3575e-14 PD=1.11e-06 PS=1.04e-06 $X=160 $Y=90 $D=1
M1 VSS A ZN VSS NMOS_VTL L=5e-08 W=4.15e-07 AD=4.3575e-14 AS=5.81e-14 PD=1.04e-06 PS=1.11e-06 $X=350 $Y=90 $D=1
M2 ZN A VDD VDD PMOS_VTL L=5e-08 W=6.3e-07 AD=8.82e-14 AS=6.615e-14 PD=1.54e-06 PS=1.47e-06 $X=160 $Y=680 $D=0
M3 VDD A ZN VDD PMOS_VTL L=5e-08 W=6.3e-07 AD=6.615e-14 AS=8.82e-14 PD=1.47e-06 PS=1.54e-06 $X=350 $Y=680 $D=0
.ENDS
***************************************
.SUBCKT MGC_via2_2x1_VH_1
** N=1 EP=0 IP=0 FDC=0
.ENDS
***************************************
.SUBCKT MGC_via2_1x2_VH_0
** N=1 EP=0 IP=0 FDC=0
.ENDS
***************************************
.SUBCKT MGC_via2_1x2_VV_1
** N=1 EP=0 IP=0 FDC=0
.ENDS
***************************************
.SUBCKT MGC_via1_2x1_HH
** N=1 EP=0 IP=0 FDC=0
.ENDS
***************************************
.SUBCKT XOR2_X1 VDD A Z B VSS 6
** N=10 EP=6 IP=0 FDC=10
M0 7 A VSS 6 NMOS_VTL L=5e-08 W=2.1e-07 AD=2.94e-14 AS=2.205e-14 PD=7e-07 PS=6.3e-07 $X=145 $Y=90 $D=1
M1 VSS B 7 6 NMOS_VTL L=5e-08 W=2.1e-07 AD=4.48e-14 AS=2.94e-14 PD=1.12e-06 PS=7e-07 $X=335 $Y=90 $D=1
M2 Z 7 VSS 6 NMOS_VTL L=5e-08 W=4.15e-07 AD=5.81e-14 AS=4.48e-14 PD=1.11e-06 PS=1.12e-06 $X=530 $Y=90 $D=1
M3 10 A Z 6 NMOS_VTL L=5e-08 W=4.15e-07 AD=5.81e-14 AS=5.81e-14 PD=1.11e-06 PS=1.11e-06 $X=720 $Y=90 $D=1
M4 VSS B 10 6 NMOS_VTL L=5e-08 W=4.15e-07 AD=4.3575e-14 AS=5.81e-14 PD=1.04e-06 PS=1.11e-06 $X=910 $Y=90 $D=1
M5 9 A 7 VDD PMOS_VTL L=5e-08 W=3.15e-07 AD=4.41e-14 AS=3.3075e-14 PD=9.1e-07 PS=8.4e-07 $X=145 $Y=995 $D=0
M6 VDD B 9 VDD PMOS_VTL L=5e-08 W=3.15e-07 AD=6.7725e-14 AS=4.41e-14 PD=1.55e-06 PS=9.1e-07 $X=335 $Y=995 $D=0
M7 8 7 VDD VDD PMOS_VTL L=5e-08 W=6.3e-07 AD=8.82e-14 AS=6.7725e-14 PD=1.54e-06 PS=1.55e-06 $X=530 $Y=680 $D=0
M8 Z A 8 VDD PMOS_VTL L=5e-08 W=6.3e-07 AD=8.82e-14 AS=8.82e-14 PD=1.54e-06 PS=1.54e-06 $X=720 $Y=680 $D=0
M9 8 B Z VDD PMOS_VTL L=5e-08 W=6.3e-07 AD=6.615e-14 AS=8.82e-14 PD=1.47e-06 PS=1.54e-06 $X=910 $Y=680 $D=0
.ENDS
***************************************
.SUBCKT MGC_via1_2x1_VH
** N=1 EP=0 IP=0 FDC=0
.ENDS
***************************************
.SUBCKT MGC_via1_2x1_VH_1
** N=1 EP=0 IP=0 FDC=0
.ENDS
***************************************
.SUBCKT ICV_10 1 2 3 4 5 6 7 8 9 10 11 12 13 14 15 16 17 18 19 20
+ 21 22 23 24 25 26 27 28 29 30 31 32 33 34 35 36 37 38 39 40
+ 42 43 45 46 47 48 49 50 51 52 53 54 55 56 57 58 59 60 61 62
+ 63 64 65 66 67 68 69 70 71 72 73 74 75 76 77 78 79 80 81 82
+ 83 84 85 86 87 88 89 90 91 92 93 94 95
** N=179 EP=93 IP=2357 FDC=1400
X1057 35 117 32 34 35 17 35 CLKGATETST_X1 $T=72630 82200 1 0 $X=72515 $Y=80685
X1058 35 118 32 34 35 26 35 CLKGATETST_X1 $T=74150 85000 1 0 $X=74035 $Y=83485
X1059 35 121 32 34 35 1 35 CLKGATETST_X1 $T=81560 82200 0 0 $X=81445 $Y=82085
X1116 63 31 35 34 117 OR2_X1 $T=73200 82200 1 180 $X=72325 $Y=82085
X1117 63 31 35 34 118 OR2_X1 $T=73390 85000 1 0 $X=73275 $Y=83485
X1118 63 31 35 34 121 OR2_X1 $T=80230 85000 1 0 $X=80115 $Y=83485
X1170 78 1 35 34 74 DFF_X1 $T=5560 79400 1 180 $X=2215 $Y=79285
X1171 157 1 35 34 65 DFF_X1 $T=5560 82200 0 180 $X=2215 $Y=80685
X1172 142 1 35 34 36 DFF_X1 $T=2330 85000 1 0 $X=2215 $Y=83485
X1173 158 1 35 34 37 DFF_X1 $T=5560 85000 1 0 $X=5445 $Y=83485
X1174 174 1 35 34 79 DFF_X1 $T=10310 82200 0 180 $X=6965 $Y=80685
X1175 170 1 35 34 38 DFF_X1 $T=8790 85000 1 0 $X=8675 $Y=83485
X1176 171 1 35 34 80 DFF_X1 $T=14300 82200 1 0 $X=14185 $Y=80685
X1177 172 1 35 34 81 DFF_X1 $T=15440 85000 1 0 $X=15325 $Y=83485
X1178 122 1 35 34 39 DFF_X1 $T=18290 82200 1 0 $X=18175 $Y=80685
X1179 159 1 35 34 66 DFF_X1 $T=18670 85000 1 0 $X=18555 $Y=83485
X1180 160 1 35 34 82 DFF_X1 $T=22280 85000 1 0 $X=22165 $Y=83485
X1181 161 1 35 34 76 DFF_X1 $T=25510 85000 1 0 $X=25395 $Y=83485
X1182 105 1 35 34 56 DFF_X1 $T=28740 85000 1 0 $X=28625 $Y=83485
X1183 107 1 35 34 43 DFF_X1 $T=31970 85000 1 0 $X=31855 $Y=83485
X1184 162 17 35 34 34 DFF_X1 $T=36720 79400 0 0 $X=36605 $Y=79285
X1185 109 1 35 34 83 DFF_X1 $T=37860 85000 1 0 $X=37745 $Y=83485
X1186 133 26 35 34 57 DFF_X1 $T=38620 82200 1 0 $X=38505 $Y=80685
X1187 123 26 35 34 58 DFF_X1 $T=43750 82200 1 0 $X=43635 $Y=80685
X1188 164 26 35 34 59 DFF_X1 $T=45460 85000 1 0 $X=45345 $Y=83485
X1189 163 26 35 34 71 DFF_X1 $T=46980 82200 1 0 $X=46865 $Y=80685
X1190 135 1 35 34 84 DFF_X1 $T=48690 85000 1 0 $X=48575 $Y=83485
X1191 137 1 35 34 72 DFF_X1 $T=55530 85000 1 0 $X=55415 $Y=83485
X1192 151 1 35 34 85 DFF_X1 $T=58760 85000 1 0 $X=58645 $Y=83485
X1193 140 1 35 34 49 DFF_X1 $T=62370 85000 1 0 $X=62255 $Y=83485
X1194 167 1 35 34 86 DFF_X1 $T=70160 85000 1 0 $X=70045 $Y=83485
X1195 173 1 35 34 62 DFF_X1 $T=77000 85000 1 0 $X=76885 $Y=83485
X1196 169 1 35 34 64 DFF_X1 $T=78710 79400 0 0 $X=78595 $Y=79285
X1197 168 1 35 34 73 DFF_X1 $T=78710 82200 1 0 $X=78595 $Y=80685
X1218 12 2 35 34 142 35 AND2_X1 $T=5370 82200 0 0 $X=5255 $Y=82085
X1219 12 97 35 34 157 35 AND2_X1 $T=6320 82200 0 180 $X=5445 $Y=80685
X1220 12 98 35 34 158 35 AND2_X1 $T=7080 82200 0 180 $X=6205 $Y=80685
X1221 12 99 35 34 174 35 AND2_X1 $T=9550 79400 1 180 $X=8675 $Y=79285
X1222 12 4 35 34 170 35 AND2_X1 $T=11070 79400 0 0 $X=10955 $Y=79285
X1223 12 5 35 34 171 35 AND2_X1 $T=14110 79400 1 180 $X=13235 $Y=79285
X1224 12 100 35 34 172 35 AND2_X1 $T=15250 79400 0 0 $X=15135 $Y=79285
X1225 12 101 35 34 159 35 AND2_X1 $T=17530 82200 1 0 $X=17415 $Y=80685
X1226 12 6 35 34 122 35 AND2_X1 $T=20190 79400 1 180 $X=19315 $Y=79285
X1227 12 102 35 34 160 35 AND2_X1 $T=23420 82200 0 180 $X=22545 $Y=80685
X1228 12 103 35 34 161 35 AND2_X1 $T=25510 82200 1 0 $X=25395 $Y=80685
X1229 33 9 35 34 40 35 AND2_X1 $T=27790 82200 1 0 $X=27675 $Y=80685
X1230 12 104 35 34 105 35 AND2_X1 $T=28740 82200 0 0 $X=28625 $Y=82085
X1231 45 10 35 34 55 35 AND2_X1 $T=29500 82200 1 0 $X=29385 $Y=80685
X1232 12 106 35 34 107 35 AND2_X1 $T=31400 82200 1 0 $X=31285 $Y=80685
X1233 12 108 35 34 109 35 AND2_X1 $T=34060 82200 1 0 $X=33945 $Y=80685
X1234 33 14 35 34 42 35 AND2_X1 $T=35390 79400 1 180 $X=34515 $Y=79285
X1235 33 15 35 34 68 35 AND2_X1 $T=35580 82200 1 0 $X=35465 $Y=80685
X1236 33 16 35 34 162 35 AND2_X1 $T=36340 82200 1 0 $X=36225 $Y=80685
X1237 45 18 35 34 133 35 AND2_X1 $T=38620 82200 0 0 $X=38505 $Y=82085
X1238 45 20 35 34 69 35 AND2_X1 $T=41090 82200 0 0 $X=40975 $Y=82085
X1239 45 21 35 34 77 35 AND2_X1 $T=41090 85000 1 0 $X=40975 $Y=83485
X1240 45 22 35 34 47 35 AND2_X1 $T=42990 82200 0 180 $X=42115 $Y=80685
X1241 45 46 35 34 70 35 AND2_X1 $T=42990 82200 1 0 $X=42875 $Y=80685
X1242 45 23 35 34 123 35 AND2_X1 $T=42990 85000 1 0 $X=42875 $Y=83485
X1243 45 24 35 34 163 35 AND2_X1 $T=44700 82200 0 0 $X=44585 $Y=82085
X1244 45 25 35 34 164 35 AND2_X1 $T=44700 85000 1 0 $X=44585 $Y=83485
X1245 12 110 35 34 135 35 AND2_X1 $T=51160 82200 1 180 $X=50285 $Y=82085
X1246 12 111 35 34 137 35 AND2_X1 $T=54770 82200 0 0 $X=54655 $Y=82085
X1247 12 112 35 34 151 35 AND2_X1 $T=58570 82200 0 0 $X=58455 $Y=82085
X1248 12 113 35 34 140 35 AND2_X1 $T=62370 82200 0 0 $X=62255 $Y=82085
X1249 12 114 35 34 167 35 AND2_X1 $T=66550 82200 1 0 $X=66435 $Y=80685
X1250 12 115 35 34 168 35 AND2_X1 $T=69780 82200 1 0 $X=69665 $Y=80685
X1251 12 116 35 34 173 35 AND2_X1 $T=69970 82200 0 0 $X=69855 $Y=82085
X1252 12 119 35 34 61 35 AND2_X1 $T=75480 79400 0 0 $X=75365 $Y=79285
X1253 12 120 35 34 169 35 AND2_X1 $T=75480 82200 1 0 $X=75365 $Y=80685
X1351 50 3 98 51 35 34 OAI21_X1 $T=6890 79400 0 0 $X=6775 $Y=79285
X1352 126 3 97 51 35 34 OAI21_X1 $T=8410 79400 1 180 $X=7535 $Y=79285
X1353 127 3 99 51 35 34 OAI21_X1 $T=10310 79400 1 180 $X=9435 $Y=79285
X1354 87 3 100 51 35 34 OAI21_X1 $T=16010 79400 0 0 $X=15895 $Y=79285
X1355 128 3 101 51 35 34 OAI21_X1 $T=18100 79400 1 180 $X=17225 $Y=79285
X1356 143 7 102 53 35 34 OAI21_X1 $T=23420 82200 1 0 $X=23305 $Y=80685
X1357 175 7 103 53 35 34 OAI21_X1 $T=25320 82200 0 0 $X=25205 $Y=82085
X1358 129 7 104 53 35 34 OAI21_X1 $T=27790 82200 0 180 $X=26915 $Y=80685
X1359 146 7 106 53 35 34 OAI21_X1 $T=30640 82200 1 0 $X=30525 $Y=80685
X1360 132 7 108 53 35 34 OAI21_X1 $T=34060 82200 0 180 $X=33185 $Y=80685
X1361 124 7 110 53 35 34 OAI21_X1 $T=47740 82200 0 0 $X=47625 $Y=82085
X1362 165 7 111 53 35 34 OAI21_X1 $T=53060 82200 0 0 $X=52945 $Y=82085
X1363 125 7 112 53 35 34 OAI21_X1 $T=56670 82200 0 0 $X=56555 $Y=82085
X1364 177 7 113 53 35 34 OAI21_X1 $T=61230 82200 0 0 $X=61115 $Y=82085
X1365 153 7 114 53 35 34 OAI21_X1 $T=65410 82200 1 0 $X=65295 $Y=80685
X1366 154 7 115 53 35 34 OAI21_X1 $T=67310 82200 1 0 $X=67195 $Y=80685
X1367 166 7 116 53 35 34 OAI21_X1 $T=68830 82200 0 180 $X=67955 $Y=80685
X1368 155 7 120 53 35 34 OAI21_X1 $T=71300 82200 0 180 $X=70425 $Y=80685
X1369 141 7 119 53 35 34 OAI21_X1 $T=73960 79400 0 0 $X=73845 $Y=79285
X1392 88 35 34 126 35 INV_X1 $T=8790 79400 1 180 $X=8295 $Y=79285
X1393 89 35 34 127 35 INV_X1 $T=11070 79400 1 180 $X=10575 $Y=79285
X1394 90 35 34 128 35 INV_X1 $T=18480 79400 1 180 $X=17985 $Y=79285
X1395 91 35 34 143 35 INV_X1 $T=23420 79400 0 0 $X=23305 $Y=79285
X1396 67 35 34 175 35 INV_X1 $T=25130 82200 1 0 $X=25015 $Y=80685
X1397 144 35 34 129 35 INV_X1 $T=26650 82200 1 0 $X=26535 $Y=80685
X1398 145 35 34 146 35 INV_X1 $T=30260 82200 1 0 $X=30145 $Y=80685
X1399 147 35 34 132 35 INV_X1 $T=32920 82200 1 0 $X=32805 $Y=80685
X1400 31 35 34 33 35 INV_X1 $T=41850 82200 0 0 $X=41735 $Y=82085
X1401 134 35 34 124 35 INV_X1 $T=45840 82200 0 0 $X=45725 $Y=82085
X1402 148 35 34 165 35 INV_X1 $T=52490 82200 1 0 $X=52375 $Y=80685
X1403 149 35 34 125 35 INV_X1 $T=55720 82200 1 0 $X=55605 $Y=80685
X1404 150 35 34 177 35 INV_X1 $T=58760 82200 1 0 $X=58645 $Y=80685
X1405 152 35 34 153 35 INV_X1 $T=63510 82200 1 0 $X=63395 $Y=80685
X1406 31 35 34 12 35 INV_X1 $T=64840 82200 0 0 $X=64725 $Y=82085
X1407 179 35 34 166 35 INV_X1 $T=66170 82200 1 0 $X=66055 $Y=80685
X1408 48 35 34 154 35 INV_X1 $T=66360 79400 0 0 $X=66245 $Y=79285
X1409 92 35 34 155 35 INV_X1 $T=69210 79400 0 0 $X=69095 $Y=79285
X1410 93 35 34 141 35 INV_X1 $T=72060 79400 0 0 $X=71945 $Y=79285
X1473 144 176 8 35 34 54 35 HA_X1 $T=27030 79400 0 0 $X=26915 $Y=79285
X1474 145 130 11 35 34 176 35 HA_X1 $T=30830 79400 1 180 $X=28815 $Y=79285
X1475 147 131 13 35 34 130 35 HA_X1 $T=32730 79400 1 180 $X=30715 $Y=79285
X1476 134 156 19 35 34 131 35 HA_X1 $T=39950 79400 0 0 $X=39835 $Y=79285
X1477 148 136 27 35 34 156 35 HA_X1 $T=53440 79400 0 0 $X=53325 $Y=79285
X1478 149 138 28 35 34 136 35 HA_X1 $T=57240 79400 1 180 $X=55225 $Y=79285
X1479 150 139 29 35 34 138 35 HA_X1 $T=59140 79400 1 180 $X=57125 $Y=79285
X1480 152 178 94 35 34 139 35 HA_X1 $T=59900 82200 1 0 $X=59785 $Y=80685
X1481 179 60 30 35 34 178 35 HA_X1 $T=64270 79400 1 180 $X=62255 $Y=79285
X1492 31 45 35 34 INV_X2 $T=44320 85000 0 180 $X=43635 $Y=83485
X1510 34 75 52 95 35 35 XOR2_X1 $T=23420 79400 1 180 $X=22165 $Y=79285
.ENDS
***************************************
.SUBCKT MUX2_X1 A S B VSS VDD Z
** N=12 EP=6 IP=0 FDC=12
M0 VSS S 7 VSS NMOS_VTL L=5e-08 W=2.1e-07 AD=2.94e-14 AS=2.205e-14 PD=7e-07 PS=6.3e-07 $X=145 $Y=90 $D=1
M1 11 A VSS VSS NMOS_VTL L=5e-08 W=2.1e-07 AD=2.94e-14 AS=2.94e-14 PD=7e-07 PS=7e-07 $X=335 $Y=90 $D=1
M2 8 7 11 VSS NMOS_VTL L=5e-08 W=2.1e-07 AD=2.94e-14 AS=2.94e-14 PD=7e-07 PS=7e-07 $X=525 $Y=90 $D=1
M3 12 S 8 VSS NMOS_VTL L=5e-08 W=2.1e-07 AD=2.94e-14 AS=2.94e-14 PD=7e-07 PS=7e-07 $X=715 $Y=90 $D=1
M4 VSS B 12 VSS NMOS_VTL L=5e-08 W=2.1e-07 AD=4.375e-14 AS=2.94e-14 PD=1.11e-06 PS=7e-07 $X=905 $Y=90 $D=1
M5 Z 8 VSS VSS NMOS_VTL L=5e-08 W=4.15e-07 AD=4.3575e-14 AS=4.375e-14 PD=1.04e-06 PS=1.11e-06 $X=1095 $Y=90 $D=1
M6 VDD S 7 VDD PMOS_VTL L=5e-08 W=3.15e-07 AD=4.41e-14 AS=3.3075e-14 PD=9.1e-07 PS=8.4e-07 $X=145 $Y=995 $D=0
M7 9 A VDD VDD PMOS_VTL L=5e-08 W=3.15e-07 AD=4.41e-14 AS=4.41e-14 PD=9.1e-07 PS=9.1e-07 $X=335 $Y=995 $D=0
M8 8 S 9 VDD PMOS_VTL L=5e-08 W=3.15e-07 AD=4.41e-14 AS=4.41e-14 PD=9.1e-07 PS=9.1e-07 $X=525 $Y=995 $D=0
M9 10 7 8 VDD PMOS_VTL L=5e-08 W=3.15e-07 AD=4.41e-14 AS=4.41e-14 PD=9.1e-07 PS=9.1e-07 $X=715 $Y=995 $D=0
M10 VDD B 10 VDD PMOS_VTL L=5e-08 W=3.15e-07 AD=6.615e-14 AS=4.41e-14 PD=1.54e-06 PS=9.1e-07 $X=905 $Y=995 $D=0
M11 Z 8 VDD VDD PMOS_VTL L=5e-08 W=6.3e-07 AD=6.615e-14 AS=6.615e-14 PD=1.47e-06 PS=1.54e-06 $X=1095 $Y=680 $D=0
.ENDS
***************************************
.SUBCKT NAND2_X1 A2 VSS A1 ZN VDD 6
** N=7 EP=6 IP=0 FDC=4
M0 7 A2 VSS 6 NMOS_VTL L=5e-08 W=4.15e-07 AD=5.81e-14 AS=4.3575e-14 PD=1.11e-06 PS=1.04e-06 $X=160 $Y=90 $D=1
M1 ZN A1 7 6 NMOS_VTL L=5e-08 W=4.15e-07 AD=4.3575e-14 AS=5.81e-14 PD=1.04e-06 PS=1.11e-06 $X=350 $Y=90 $D=1
M2 ZN A2 VDD VDD PMOS_VTL L=5e-08 W=6.3e-07 AD=8.82e-14 AS=6.615e-14 PD=1.54e-06 PS=1.47e-06 $X=160 $Y=680 $D=0
M3 VDD A1 ZN VDD PMOS_VTL L=5e-08 W=6.3e-07 AD=6.615e-14 AS=8.82e-14 PD=1.47e-06 PS=1.54e-06 $X=350 $Y=680 $D=0
.ENDS
***************************************
.SUBCKT NOR2_X1 A2 VDD A1 ZN VSS 6
** N=7 EP=6 IP=0 FDC=4
M0 ZN A2 VSS 6 NMOS_VTL L=5e-08 W=4.15e-07 AD=5.81e-14 AS=4.3575e-14 PD=1.11e-06 PS=1.04e-06 $X=160 $Y=90 $D=1
M1 VSS A1 ZN 6 NMOS_VTL L=5e-08 W=4.15e-07 AD=4.3575e-14 AS=5.81e-14 PD=1.04e-06 PS=1.11e-06 $X=350 $Y=90 $D=1
M2 7 A2 VDD VDD PMOS_VTL L=5e-08 W=6.3e-07 AD=8.82e-14 AS=6.615e-14 PD=1.54e-06 PS=1.47e-06 $X=160 $Y=680 $D=0
M3 ZN A1 7 VDD PMOS_VTL L=5e-08 W=6.3e-07 AD=6.615e-14 AS=8.82e-14 PD=1.47e-06 PS=1.54e-06 $X=350 $Y=680 $D=0
.ENDS
***************************************
.SUBCKT AOI21_X1 B2 B1 ZN A VSS VDD 7
** N=9 EP=7 IP=0 FDC=6
M0 9 B2 VSS 7 NMOS_VTL L=5e-08 W=4.15e-07 AD=5.81e-14 AS=4.3575e-14 PD=1.11e-06 PS=1.04e-06 $X=185 $Y=90 $D=1
M1 ZN B1 9 7 NMOS_VTL L=5e-08 W=4.15e-07 AD=5.81e-14 AS=5.81e-14 PD=1.11e-06 PS=1.11e-06 $X=375 $Y=90 $D=1
M2 VSS A ZN 7 NMOS_VTL L=5e-08 W=4.15e-07 AD=4.3575e-14 AS=5.81e-14 PD=1.04e-06 PS=1.11e-06 $X=565 $Y=90 $D=1
M3 ZN B2 8 VDD PMOS_VTL L=5e-08 W=6.3e-07 AD=8.82e-14 AS=6.615e-14 PD=1.54e-06 PS=1.47e-06 $X=185 $Y=680 $D=0
M4 8 B1 ZN VDD PMOS_VTL L=5e-08 W=6.3e-07 AD=8.82e-14 AS=8.82e-14 PD=1.54e-06 PS=1.54e-06 $X=375 $Y=680 $D=0
M5 VDD A 8 VDD PMOS_VTL L=5e-08 W=6.3e-07 AD=6.615e-14 AS=8.82e-14 PD=1.47e-06 PS=1.54e-06 $X=565 $Y=680 $D=0
.ENDS
***************************************
.SUBCKT NOR3_X1 A3 VDD A2 A1 VSS ZN 7
** N=9 EP=7 IP=0 FDC=6
M0 ZN A3 VSS 7 NMOS_VTL L=5e-08 W=4.15e-07 AD=5.81e-14 AS=4.3575e-14 PD=1.11e-06 PS=1.04e-06 $X=145 $Y=90 $D=1
M1 VSS A2 ZN 7 NMOS_VTL L=5e-08 W=4.15e-07 AD=5.81e-14 AS=5.81e-14 PD=1.11e-06 PS=1.11e-06 $X=335 $Y=90 $D=1
M2 ZN A1 VSS 7 NMOS_VTL L=5e-08 W=4.15e-07 AD=4.3575e-14 AS=5.81e-14 PD=1.04e-06 PS=1.11e-06 $X=525 $Y=90 $D=1
M3 8 A3 VDD VDD PMOS_VTL L=5e-08 W=6.3e-07 AD=8.82e-14 AS=6.615e-14 PD=1.54e-06 PS=1.47e-06 $X=145 $Y=680 $D=0
M4 9 A2 8 VDD PMOS_VTL L=5e-08 W=6.3e-07 AD=8.82e-14 AS=8.82e-14 PD=1.54e-06 PS=1.54e-06 $X=335 $Y=680 $D=0
M5 ZN A1 9 VDD PMOS_VTL L=5e-08 W=6.3e-07 AD=6.615e-14 AS=8.82e-14 PD=1.47e-06 PS=1.54e-06 $X=525 $Y=680 $D=0
.ENDS
***************************************
.SUBCKT XNOR2_X1 VSS A ZN B VDD 6
** N=10 EP=6 IP=0 FDC=10
M0 10 A 7 6 NMOS_VTL L=5e-08 W=2.1e-07 AD=2.94e-14 AS=2.205e-14 PD=7e-07 PS=6.3e-07 $X=155 $Y=90 $D=1
M1 VSS B 10 6 NMOS_VTL L=5e-08 W=2.1e-07 AD=4.48e-14 AS=2.94e-14 PD=1.12e-06 PS=7e-07 $X=345 $Y=90 $D=1
M2 8 7 VSS 6 NMOS_VTL L=5e-08 W=4.15e-07 AD=5.81e-14 AS=4.48e-14 PD=1.11e-06 PS=1.12e-06 $X=540 $Y=90 $D=1
M3 ZN A 8 6 NMOS_VTL L=5e-08 W=4.15e-07 AD=5.81e-14 AS=5.81e-14 PD=1.11e-06 PS=1.11e-06 $X=730 $Y=90 $D=1
M4 8 B ZN 6 NMOS_VTL L=5e-08 W=4.15e-07 AD=4.3575e-14 AS=5.81e-14 PD=1.04e-06 PS=1.11e-06 $X=920 $Y=90 $D=1
M5 7 A VDD VDD PMOS_VTL L=5e-08 W=3.15e-07 AD=4.41e-14 AS=3.3075e-14 PD=9.1e-07 PS=8.4e-07 $X=155 $Y=995 $D=0
M6 VDD B 7 VDD PMOS_VTL L=5e-08 W=3.15e-07 AD=6.7725e-14 AS=4.41e-14 PD=1.55e-06 PS=9.1e-07 $X=345 $Y=995 $D=0
M7 ZN 7 VDD VDD PMOS_VTL L=5e-08 W=6.3e-07 AD=8.82e-14 AS=6.7725e-14 PD=1.54e-06 PS=1.55e-06 $X=540 $Y=680 $D=0
M8 9 A ZN VDD PMOS_VTL L=5e-08 W=6.3e-07 AD=8.82e-14 AS=8.82e-14 PD=1.54e-06 PS=1.54e-06 $X=730 $Y=680 $D=0
M9 VDD B 9 VDD PMOS_VTL L=5e-08 W=6.3e-07 AD=6.615e-14 AS=8.82e-14 PD=1.47e-06 PS=1.54e-06 $X=920 $Y=680 $D=0
.ENDS
***************************************
.SUBCKT OR3_X1 A1 A2 A3 VSS VDD ZN
** N=9 EP=6 IP=0 FDC=8