* SPICE NETLIST
***************************************

*.CALIBRE ABORT_INFO SUPPLY_ERROR
.SUBCKT MGC_via1_1x2_VV_1
** N=1 EP=0 IP=0 FDC=0
.ENDS
***************************************
.SUBCKT MGC_via2_2x1_HH_0
** N=1 EP=0 IP=0 FDC=0
.ENDS
***************************************
.SUBCKT via1_5
** N=1 EP=0 IP=0 FDC=0
.ENDS
***************************************
.SUBCKT via2_7
** N=1 EP=0 IP=0 FDC=0
.ENDS
***************************************
.SUBCKT ICV_1
** N=1 EP=0 IP=2 FDC=0
.ENDS
***************************************
.SUBCKT FILLCELL_X2
** N=4 EP=0 IP=0 FDC=0
*.CALIBRE ISOLATED NETS: VSS VDD
.ENDS
***************************************
.SUBCKT MGC_AUTO_NDR_MGC_CLK_NDR_1.0w2.0s_via2_single_MA_north
** N=1 EP=0 IP=0 FDC=0
.ENDS
***************************************
.SUBCKT ICV_2
** N=4 EP=0 IP=8 FDC=0
.ENDS
***************************************
.SUBCKT FILLCELL_X4
** N=4 EP=0 IP=0 FDC=0
*.CALIBRE ISOLATED NETS: VSS VDD
.ENDS
***************************************
.SUBCKT CLKBUF_X3 A VSS VDD Z 5 6
** N=7 EP=6 IP=0 FDC=8
M0 VSS A 7 5 NMOS_VTL L=5e-08 W=1.95e-07 AD=2.73e-14 AS=2.0475e-14 PD=6.7e-07 PS=6e-07 $X=145 $Y=90 $D=1
M1 Z 7 VSS 5 NMOS_VTL L=5e-08 W=1.95e-07 AD=2.73e-14 AS=2.73e-14 PD=6.7e-07 PS=6.7e-07 $X=335 $Y=90 $D=1
M2 VSS 7 Z 5 NMOS_VTL L=5e-08 W=1.95e-07 AD=2.73e-14 AS=2.73e-14 PD=6.7e-07 PS=6.7e-07 $X=525 $Y=90 $D=1
M3 Z 7 VSS 5 NMOS_VTL L=5e-08 W=1.95e-07 AD=2.0475e-14 AS=2.73e-14 PD=6e-07 PS=6.7e-07 $X=715 $Y=90 $D=1
M4 VDD A 7 6 PMOS_VTL L=5e-08 W=6.3e-07 AD=8.82e-14 AS=6.615e-14 PD=1.54e-06 PS=1.47e-06 $X=145 $Y=680 $D=0
M5 Z 7 VDD 6 PMOS_VTL L=5e-08 W=6.3e-07 AD=8.82e-14 AS=8.82e-14 PD=1.54e-06 PS=1.54e-06 $X=335 $Y=680 $D=0
M6 VDD 7 Z 6 PMOS_VTL L=5e-08 W=6.3e-07 AD=8.82e-14 AS=8.82e-14 PD=1.54e-06 PS=1.54e-06 $X=525 $Y=680 $D=0
M7 Z 7 VDD 6 PMOS_VTL L=5e-08 W=6.3e-07 AD=6.615e-14 AS=8.82e-14 PD=1.47e-06 PS=1.54e-06 $X=715 $Y=680 $D=0
.ENDS
***************************************
.SUBCKT MGC_via1_1x2_HV_1
** N=1 EP=0 IP=0 FDC=0
.ENDS
***************************************
.SUBCKT MGC_via2_2x1_HH_1
** N=1 EP=0 IP=0 FDC=0
.ENDS
***************************************
.SUBCKT ICV_3
** N=1 EP=0 IP=2 FDC=0
.ENDS
***************************************
.SUBCKT FILLCELL_X8
** N=4 EP=0 IP=0 FDC=0
*.CALIBRE ISOLATED NETS: VSS VDD
.ENDS
***************************************
.SUBCKT MGC_via1_2x1_VH_0
** N=1 EP=0 IP=0 FDC=0
.ENDS
***************************************
.SUBCKT ICV_4
** N=1 EP=0 IP=2 FDC=0
.ENDS
***************************************
.SUBCKT DFF_X1 D CK VSS VDD Q 6 7
** N=22 EP=7 IP=0 FDC=28
M0 VSS 11 8 6 NMOS_VTL L=5e-08 W=2.1e-07 AD=2.1e-14 AS=2.205e-14 PD=7e-07 PS=6.3e-07 $X=160 $Y=180 $D=1
M1 19 10 VSS 6 NMOS_VTL L=5e-08 W=9e-08 AD=1.26e-14 AS=2.1e-14 PD=4.6e-07 PS=7e-07 $X=350 $Y=300 $D=1
M2 9 8 19 6 NMOS_VTL L=5e-08 W=9e-08 AD=2.6e-14 AS=1.26e-14 PD=8.4e-07 PS=4.6e-07 $X=540 $Y=300 $D=1
M3 20 11 9 6 NMOS_VTL L=5e-08 W=2.75e-07 AD=3.85e-14 AS=2.6e-14 PD=8.3e-07 PS=8.4e-07 $X=735 $Y=180 $D=1
M4 VSS D 20 6 NMOS_VTL L=5e-08 W=2.75e-07 AD=3.395e-14 AS=3.85e-14 PD=8.3e-07 PS=8.3e-07 $X=925 $Y=180 $D=1
M5 10 9 VSS 6 NMOS_VTL L=5e-08 W=2.1e-07 AD=2.205e-14 AS=3.395e-14 PD=6.3e-07 PS=8.3e-07 $X=1115 $Y=180 $D=1
M6 VSS CK 11 6 NMOS_VTL L=5e-08 W=2.1e-07 AD=2.94e-14 AS=2.205e-14 PD=7e-07 PS=6.3e-07 $X=1530 $Y=255 $D=1
M7 21 9 VSS 6 NMOS_VTL L=5e-08 W=2.1e-07 AD=2.94e-14 AS=2.94e-14 PD=7e-07 PS=7e-07 $X=1720 $Y=255 $D=1
M8 12 8 21 6 NMOS_VTL L=5e-08 W=2.1e-07 AD=2.1e-14 AS=2.94e-14 PD=7e-07 PS=7e-07 $X=1910 $Y=255 $D=1
M9 22 11 12 6 NMOS_VTL L=5e-08 W=9e-08 AD=1.305e-14 AS=2.1e-14 PD=4.7e-07 PS=7e-07 $X=2100 $Y=300 $D=1
M10 VSS 14 22 6 NMOS_VTL L=5e-08 W=9e-08 AD=2.1e-14 AS=1.305e-14 PD=7e-07 PS=4.7e-07 $X=2295 $Y=300 $D=1
M11 14 12 VSS 6 NMOS_VTL L=5e-08 W=2.1e-07 AD=2.205e-14 AS=2.1e-14 PD=6.3e-07 PS=7e-07 $X=2485 $Y=255 $D=1
M12 VSS 12 QN 6 NMOS_VTL L=5e-08 W=4.15e-07 AD=5.81e-14 AS=4.3575e-14 PD=1.11e-06 PS=1.04e-06 $X=2825 $Y=90 $D=1
M13 Q 14 VSS 6 NMOS_VTL L=5e-08 W=4.15e-07 AD=4.3575e-14 AS=5.81e-14 PD=1.04e-06 PS=1.11e-06 $X=3015 $Y=90 $D=1
M14 VDD 11 8 7 PMOS_VTL L=5e-08 W=3.15e-07 AD=2.835e-14 AS=3.3075e-14 PD=9.1e-07 PS=8.4e-07 $X=160 $Y=785 $D=0
M15 15 10 VDD 7 PMOS_VTL L=5e-08 W=9e-08 AD=1.26e-14 AS=2.835e-14 PD=4.6e-07 PS=9.1e-07 $X=350 $Y=1010 $D=0
M16 9 11 15 7 PMOS_VTL L=5e-08 W=9e-08 AD=3.615e-14 AS=1.26e-14 PD=1.13e-06 PS=4.6e-07 $X=540 $Y=1010 $D=0
M17 16 8 9 7 PMOS_VTL L=5e-08 W=4.2e-07 AD=5.88e-14 AS=3.615e-14 PD=1.12e-06 PS=1.13e-06 $X=735 $Y=765 $D=0
M18 VDD D 16 7 PMOS_VTL L=5e-08 W=4.2e-07 AD=5.145e-14 AS=5.88e-14 PD=1.12e-06 PS=1.12e-06 $X=925 $Y=765 $D=0
M19 10 9 VDD 7 PMOS_VTL L=5e-08 W=3.15e-07 AD=5.67e-14 AS=5.145e-14 PD=9.9e-07 PS=1.12e-06 $X=1115 $Y=870 $D=0
M20 VDD CK 11 7 PMOS_VTL L=5e-08 W=3.15e-07 AD=4.41e-14 AS=3.3075e-14 PD=9.1e-07 PS=8.4e-07 $X=1530 $Y=870 $D=0
M21 17 9 VDD 7 PMOS_VTL L=5e-08 W=3.15e-07 AD=4.41e-14 AS=4.41e-14 PD=9.1e-07 PS=9.1e-07 $X=1720 $Y=870 $D=0
M22 12 11 17 7 PMOS_VTL L=5e-08 W=3.15e-07 AD=2.835e-14 AS=4.41e-14 PD=9.1e-07 PS=9.1e-07 $X=1910 $Y=870 $D=0
M23 18 8 12 7 PMOS_VTL L=5e-08 W=9e-08 AD=1.305e-14 AS=2.835e-14 PD=4.7e-07 PS=9.1e-07 $X=2100 $Y=1095 $D=0
M24 VDD 14 18 7 PMOS_VTL L=5e-08 W=9e-08 AD=2.835e-14 AS=1.305e-14 PD=9.1e-07 PS=4.7e-07 $X=2295 $Y=1095 $D=0
M25 14 12 VDD 7 PMOS_VTL L=5e-08 W=3.15e-07 AD=3.3075e-14 AS=2.835e-14 PD=8.4e-07 PS=9.1e-07 $X=2485 $Y=870 $D=0
M26 VDD 12 QN 7 PMOS_VTL L=5e-08 W=6.3e-07 AD=8.82e-14 AS=6.615e-14 PD=1.54e-06 PS=1.47e-06 $X=2825 $Y=680 $D=0
M27 Q 14 VDD 7 PMOS_VTL L=5e-08 W=6.3e-07 AD=6.615e-14 AS=8.82e-14 PD=1.47e-06 PS=1.54e-06 $X=3015 $Y=680 $D=0
.ENDS
***************************************
.SUBCKT ICV_5
** N=1 EP=0 IP=2 FDC=0
.ENDS
***************************************
.SUBCKT MGC_via2_2x1_VH_0
** N=1 EP=0 IP=0 FDC=0
.ENDS
***************************************
.SUBCKT MGC_via1_1x2_VV
** N=1 EP=0 IP=0 FDC=0
.ENDS
***************************************
.SUBCKT MGC_via1_2x1_HH
** N=1 EP=0 IP=0 FDC=0
.ENDS
***************************************
.SUBCKT MGC_via1_1x2_HV
** N=1 EP=0 IP=0 FDC=0
.ENDS
***************************************
.SUBCKT CLKBUF_X1 A VSS VDD Z 5 6
** N=7 EP=6 IP=0 FDC=4
M0 VSS A 7 5 NMOS_VTL L=5e-08 W=9.5e-08 AD=2.03e-14 AS=9.975e-15 PD=6.7e-07 PS=4e-07 $X=165 $Y=160 $D=1
M1 Z 7 VSS 5 NMOS_VTL L=5e-08 W=1.95e-07 AD=2.0475e-14 AS=2.03e-14 PD=6e-07 PS=6.7e-07 $X=355 $Y=160 $D=1
M2 VDD A 7 6 PMOS_VTL L=5e-08 W=3.15e-07 AD=6.615e-14 AS=3.3075e-14 PD=1.54e-06 PS=8.4e-07 $X=165 $Y=995 $D=0
M3 Z 7 VDD 6 PMOS_VTL L=5e-08 W=6.3e-07 AD=6.615e-14 AS=6.615e-14 PD=1.47e-06 PS=1.54e-06 $X=355 $Y=680 $D=0
.ENDS
***************************************
.SUBCKT MGC_via1_1x2_VV_0
** N=1 EP=0 IP=0 FDC=0
.ENDS
***************************************
.SUBCKT via2_5
** N=1 EP=0 IP=0 FDC=0
.ENDS
***************************************
.SUBCKT OR2_X1 A1 A2 VSS VDD ZN 6 7
** N=9 EP=7 IP=0 FDC=6
M0 8 A1 VSS 6 NMOS_VTL L=5e-08 W=2.1e-07 AD=2.94e-14 AS=2.205e-14 PD=7e-07 PS=6.3e-07 $X=145 $Y=90 $D=1
M1 VSS A2 8 6 NMOS_VTL L=5e-08 W=2.1e-07 AD=4.375e-14 AS=2.94e-14 PD=1.11e-06 PS=7e-07 $X=335 $Y=90 $D=1
M2 ZN 8 VSS 6 NMOS_VTL L=5e-08 W=4.15e-07 AD=4.3575e-14 AS=4.375e-14 PD=1.04e-06 PS=1.11e-06 $X=525 $Y=90 $D=1
M3 9 A1 8 7 PMOS_VTL L=5e-08 W=3.15e-07 AD=4.41e-14 AS=3.3075e-14 PD=9.1e-07 PS=8.4e-07 $X=145 $Y=995 $D=0
M4 VDD A2 9 7 PMOS_VTL L=5e-08 W=3.15e-07 AD=6.615e-14 AS=4.41e-14 PD=1.54e-06 PS=9.1e-07 $X=335 $Y=995 $D=0
M5 ZN 8 VDD 7 PMOS_VTL L=5e-08 W=6.3e-07 AD=6.615e-14 AS=6.615e-14 PD=1.47e-06 PS=1.54e-06 $X=525 $Y=680 $D=0
.ENDS
***************************************
.SUBCKT FILLCELL_X32
** N=4 EP=0 IP=0 FDC=0
*.CALIBRE ISOLATED NETS: VSS VDD
.ENDS
***************************************
.SUBCKT MGC_via2_2x1_HH
** N=1 EP=0 IP=0 FDC=0
.ENDS
***************************************
.SUBCKT MGC_via1_1x2_HV_0
** N=1 EP=0 IP=0 FDC=0
.ENDS
***************************************
.SUBCKT MGC_via2_2x1_VH_1
** N=1 EP=0 IP=0 FDC=0
.ENDS
***************************************
.SUBCKT MGC_via2_1x2_VV_0
** N=1 EP=0 IP=0 FDC=0
.ENDS
***************************************
.SUBCKT MGC_via2_1x2_VH_1
** N=1 EP=0 IP=0 FDC=0
.ENDS
***************************************
.SUBCKT AND2_X1 A1 A2 VSS VDD ZN 6 7
** N=9 EP=7 IP=0 FDC=6
M0 9 A1 8 6 NMOS_VTL L=5e-08 W=2.1e-07 AD=2.94e-14 AS=2.205e-14 PD=7e-07 PS=6.3e-07 $X=145 $Y=90 $D=1
M1 VSS A2 9 6 NMOS_VTL L=5e-08 W=2.1e-07 AD=4.375e-14 AS=2.94e-14 PD=1.11e-06 PS=7e-07 $X=335 $Y=90 $D=1
M2 ZN 8 VSS 6 NMOS_VTL L=5e-08 W=4.15e-07 AD=4.3575e-14 AS=4.375e-14 PD=1.04e-06 PS=1.11e-06 $X=525 $Y=90 $D=1
M3 8 A1 VDD 7 PMOS_VTL L=5e-08 W=3.15e-07 AD=4.41e-14 AS=3.3075e-14 PD=9.1e-07 PS=8.4e-07 $X=145 $Y=995 $D=0
M4 VDD A2 8 7 PMOS_VTL L=5e-08 W=3.15e-07 AD=6.615e-14 AS=4.41e-14 PD=1.54e-06 PS=9.1e-07 $X=335 $Y=995 $D=0
M5 ZN 8 VDD 7 PMOS_VTL L=5e-08 W=6.3e-07 AD=6.615e-14 AS=6.615e-14 PD=1.47e-06 PS=1.54e-06 $X=525 $Y=680 $D=0
.ENDS
***************************************
.SUBCKT FILLCELL_X16
** N=4 EP=0 IP=0 FDC=0
*.CALIBRE ISOLATED NETS: VSS VDD
.ENDS
***************************************
.SUBCKT OAI21_X1 B2 B1 ZN A VSS VDD 7 8
** N=10 EP=8 IP=0 FDC=6
M0 ZN B2 9 7 NMOS_VTL L=5e-08 W=4.15e-07 AD=5.81e-14 AS=4.3575e-14 PD=1.11e-06 PS=1.04e-06 $X=170 $Y=90 $D=1
M1 9 B1 ZN 7 NMOS_VTL L=5e-08 W=4.15e-07 AD=5.81e-14 AS=5.81e-14 PD=1.11e-06 PS=1.11e-06 $X=360 $Y=90 $D=1
M2 VSS A 9 7 NMOS_VTL L=5e-08 W=4.15e-07 AD=4.3575e-14 AS=5.81e-14 PD=1.04e-06 PS=1.11e-06 $X=550 $Y=90 $D=1
M3 10 B2 VDD 8 PMOS_VTL L=5e-08 W=6.3e-07 AD=8.82e-14 AS=6.615e-14 PD=1.54e-06 PS=1.47e-06 $X=170 $Y=680 $D=0
M4 ZN B1 10 8 PMOS_VTL L=5e-08 W=6.3e-07 AD=8.82e-14 AS=8.82e-14 PD=1.54e-06 PS=1.54e-06 $X=360 $Y=680 $D=0
M5 VDD A ZN 8 PMOS_VTL L=5e-08 W=6.3e-07 AD=6.615e-14 AS=8.82e-14 PD=1.47e-06 PS=1.54e-06 $X=550 $Y=680 $D=0
.ENDS
***************************************
.SUBCKT INV_X1 A VSS VDD ZN 5 6
** N=6 EP=6 IP=0 FDC=2
M0 ZN A VSS 5 NMOS_VTL L=5e-08 W=4.15e-07 AD=4.3575e-14 AS=4.3575e-14 PD=1.04e-06 PS=1.04e-06 $X=145 $Y=90 $D=1
M1 ZN A VDD 6 PMOS_VTL L=5e-08 W=6.3e-07 AD=6.615e-14 AS=6.615e-14 PD=1.47e-06 PS=1.47e-06 $X=145 $Y=680 $D=0
.ENDS
***************************************
.SUBCKT MGC_via2_1x2_VV_1
** N=1 EP=0 IP=0 FDC=0
.ENDS
***************************************
.SUBCKT HA_X1 S B A VSS VDD CO 7 8
** N=14 EP=8 IP=0 FDC=16
M0 13 B VSS 7 NMOS_VTL L=5e-08 W=4.15e-07 AD=5.81e-14 AS=4.3575e-14 PD=1.11e-06 PS=1.04e-06 $X=185 $Y=90 $D=1
M1 S A 13 7 NMOS_VTL L=5e-08 W=4.15e-07 AD=5.81e-14 AS=5.81e-14 PD=1.11e-06 PS=1.11e-06 $X=375 $Y=90 $D=1
M2 VSS 10 S 7 NMOS_VTL L=5e-08 W=4.15e-07 AD=4.48e-14 AS=5.81e-14 PD=1.12e-06 PS=1.11e-06 $X=565 $Y=90 $D=1
M3 10 B VSS 7 NMOS_VTL L=5e-08 W=2.1e-07 AD=2.94e-14 AS=4.48e-14 PD=7e-07 PS=1.12e-06 $X=760 $Y=90 $D=1
M4 VSS A 10 7 NMOS_VTL L=5e-08 W=2.1e-07 AD=2.205e-14 AS=2.94e-14 PD=6.3e-07 PS=7e-07 $X=950 $Y=90 $D=1
M5 14 A 11 7 NMOS_VTL L=5e-08 W=2.1e-07 AD=2.94e-14 AS=2.205e-14 PD=7e-07 PS=6.3e-07 $X=1320 $Y=90 $D=1
M6 VSS B 14 7 NMOS_VTL L=5e-08 W=2.1e-07 AD=4.375e-14 AS=2.94e-14 PD=1.11e-06 PS=7e-07 $X=1510 $Y=90 $D=1
M7 CO 11 VSS 7 NMOS_VTL L=5e-08 W=4.15e-07 AD=4.3575e-14 AS=4.375e-14 PD=1.04e-06 PS=1.11e-06 $X=1700 $Y=90 $D=1
M8 S B 9 8 PMOS_VTL L=5e-08 W=6.3e-07 AD=8.82e-14 AS=6.615e-14 PD=1.54e-06 PS=1.47e-06 $X=185 $Y=680 $D=0
M9 9 A S 8 PMOS_VTL L=5e-08 W=6.3e-07 AD=8.82e-14 AS=8.82e-14 PD=1.54e-06 PS=1.54e-06 $X=375 $Y=680 $D=0
M10 VDD 10 9 8 PMOS_VTL L=5e-08 W=6.3e-07 AD=6.7725e-14 AS=8.82e-14 PD=1.55e-06 PS=1.54e-06 $X=565 $Y=680 $D=0
M11 12 B VDD 8 PMOS_VTL L=5e-08 W=3.15e-07 AD=4.41e-14 AS=6.7725e-14 PD=9.1e-07 PS=1.55e-06 $X=760 $Y=870 $D=0
M12 10 A 12 8 PMOS_VTL L=5e-08 W=3.15e-07 AD=3.3075e-14 AS=4.41e-14 PD=8.4e-07 PS=9.1e-07 $X=950 $Y=870 $D=0
M13 11 A VDD 8 PMOS_VTL L=5e-08 W=3.15e-07 AD=4.41e-14 AS=3.3075e-14 PD=9.1e-07 PS=8.4e-07 $X=1320 $Y=870 $D=0
M14 VDD B 11 8 PMOS_VTL L=5e-08 W=3.15e-07 AD=6.615e-14 AS=4.41e-14 PD=1.54e-06 PS=9.1e-07 $X=1510 $Y=870 $D=0
M15 CO 11 VDD 8 PMOS_VTL L=5e-08 W=6.3e-07 AD=6.615e-14 AS=6.615e-14 PD=1.47e-06 PS=1.54e-06 $X=1700 $Y=680 $D=0
.ENDS
***************************************
.SUBCKT MGC_via2_1x2_VV
** N=1 EP=0 IP=0 FDC=0
.ENDS
***************************************
.SUBCKT CLKGATETST_X1 SE E CK VDD VSS GCK 7 8
** N=20 EP=8 IP=0 FDC=24
M0 9 SE VSS 7 NMOS_VTL L=5e-08 W=2.1e-07 AD=2.94e-14 AS=2.205e-14 PD=7e-07 PS=6.3e-07 $X=145 $Y=205 $D=1
M1 VSS E 9 7 NMOS_VTL L=5e-08 W=2.1e-07 AD=3.395e-14 AS=2.94e-14 PD=8.3e-07 PS=7e-07 $X=335 $Y=205 $D=1
M2 18 9 VSS 7 NMOS_VTL L=5e-08 W=2.75e-07 AD=3.85e-14 AS=3.395e-14 PD=8.3e-07 PS=8.3e-07 $X=525 $Y=140 $D=1
M3 10 13 18 7 NMOS_VTL L=5e-08 W=2.75e-07 AD=2.915e-14 AS=3.85e-14 PD=9.1e-07 PS=8.3e-07 $X=715 $Y=140 $D=1
M4 19 11 10 7 NMOS_VTL L=5e-08 W=9e-08 AD=1.26e-14 AS=2.915e-14 PD=4.6e-07 PS=9.1e-07 $X=945 $Y=300 $D=1
M5 VSS 12 19 7 NMOS_VTL L=5e-08 W=9e-08 AD=2.1e-14 AS=1.26e-14 PD=7e-07 PS=4.6e-07 $X=1135 $Y=300 $D=1
M6 11 13 VSS 7 NMOS_VTL L=5e-08 W=2.1e-07 AD=2.205e-14 AS=2.1e-14 PD=6.3e-07 PS=7e-07 $X=1325 $Y=180 $D=1
M7 VSS 10 12 7 NMOS_VTL L=5e-08 W=2.1e-07 AD=2.94e-14 AS=2.205e-14 PD=7e-07 PS=6.3e-07 $X=1665 $Y=315 $D=1
M8 13 CK VSS 7 NMOS_VTL L=5e-08 W=2.1e-07 AD=2.205e-14 AS=2.94e-14 PD=6.3e-07 PS=7e-07 $X=1855 $Y=315 $D=1
M9 20 CK 14 7 NMOS_VTL L=5e-08 W=2.1e-07 AD=2.94e-14 AS=2.205e-14 PD=7e-07 PS=6.3e-07 $X=2240 $Y=295 $D=1
M10 VSS 10 20 7 NMOS_VTL L=5e-08 W=2.1e-07 AD=2.835e-14 AS=2.94e-14 PD=7e-07 PS=7e-07 $X=2430 $Y=295 $D=1
M11 GCK 14 VSS 7 NMOS_VTL L=5e-08 W=1.95e-07 AD=2.0475e-14 AS=2.835e-14 PD=6e-07 PS=7e-07 $X=2620 $Y=310 $D=1
M12 15 SE 9 8 PMOS_VTL L=5e-08 W=3.15e-07 AD=4.41e-14 AS=3.3075e-14 PD=9.1e-07 PS=8.4e-07 $X=145 $Y=890 $D=0
M13 VDD E 15 8 PMOS_VTL L=5e-08 W=3.15e-07 AD=5.145e-14 AS=4.41e-14 PD=1.12e-06 PS=9.1e-07 $X=335 $Y=890 $D=0
M14 16 9 VDD 8 PMOS_VTL L=5e-08 W=4.2e-07 AD=5.88e-14 AS=5.145e-14 PD=1.12e-06 PS=1.12e-06 $X=525 $Y=890 $D=0
M15 10 11 16 8 PMOS_VTL L=5e-08 W=4.2e-07 AD=3.93e-14 AS=5.88e-14 PD=1.2e-06 PS=1.12e-06 $X=715 $Y=890 $D=0
M16 17 13 10 8 PMOS_VTL L=5e-08 W=9e-08 AD=1.26e-14 AS=3.93e-14 PD=4.6e-07 PS=1.2e-06 $X=945 $Y=990 $D=0
M17 VDD 12 17 8 PMOS_VTL L=5e-08 W=9e-08 AD=2.835e-14 AS=1.26e-14 PD=9.1e-07 PS=4.6e-07 $X=1135 $Y=990 $D=0
M18 11 13 VDD 8 PMOS_VTL L=5e-08 W=3.15e-07 AD=3.3075e-14 AS=2.835e-14 PD=8.4e-07 PS=9.1e-07 $X=1325 $Y=990 $D=0
M19 VDD 10 12 8 PMOS_VTL L=5e-08 W=3.15e-07 AD=4.41e-14 AS=3.3075e-14 PD=9.1e-07 PS=8.4e-07 $X=1665 $Y=870 $D=0
M20 13 CK VDD 8 PMOS_VTL L=5e-08 W=3.15e-07 AD=3.3075e-14 AS=4.41e-14 PD=8.4e-07 PS=9.1e-07 $X=1855 $Y=870 $D=0
M21 14 CK VDD 8 PMOS_VTL L=5e-08 W=3.15e-07 AD=4.41e-14 AS=3.3075e-14 PD=9.1e-07 PS=8.4e-07 $X=2240 $Y=870 $D=0
M22 VDD 10 14 8 PMOS_VTL L=5e-08 W=3.15e-07 AD=6.615e-14 AS=4.41e-14 PD=1.54e-06 PS=9.1e-07 $X=2430 $Y=870 $D=0
M23 GCK 14 VDD 8 PMOS_VTL L=5e-08 W=6.3e-07 AD=6.615e-14 AS=6.615e-14 PD=1.47e-06 PS=1.54e-06 $X=2620 $Y=680 $D=0
.ENDS
***************************************
.SUBCKT MGC_via1_2x1_HH_0
** N=1 EP=0 IP=0 FDC=0
.ENDS
***************************************
.SUBCKT via1_7
** N=1 EP=0 IP=0 FDC=0
.ENDS
***************************************
.SUBCKT MGC_via1_2x1_HH_1
** N=1 EP=0 IP=0 FDC=0
.ENDS
***************************************
.SUBCKT MGC_via2_1x2_VH_0
** N=1 EP=0 IP=0 FDC=0
.ENDS
***************************************
.SUBCKT MGC_via1_2x1_VH_1
** N=1 EP=0 IP=0 FDC=0
.ENDS
***************************************
.SUBCKT MGC_via1_2x1_VH
** N=1 EP=0 IP=0 FDC=0
.ENDS
***************************************
.SUBCKT ICV_6 1 2 3 4 5 6 7 8 9 10 11 12 13 14 15 16 17 18 19 20
+ 21 22 23 24 25 26 27 28 29 30 31 32 34 35 36 37 38 39 40 41
+ 42 43 44 45 46 47 48 49 50 51 52 53 54 55 56 57 58 59 60 61
+ 62 63 64 65 66 67 68 69 70 71 72 73 74 75 76 77 78 79 80 81
+ 82 83 84 85 86 87 88 89 90 91 98
** N=214 EP=91 IP=2606 FDC=1460
M0 124 37 37 211 NMOS_VTL L=5e-08 W=2.1e-07 AD=2.94e-14 AS=2.205e-14 PD=7e-07 PS=6.3e-07 $X=77360 $Y=82290 $D=1
M1 37 125 124 211 NMOS_VTL L=5e-08 W=2.1e-07 AD=2.205e-14 AS=2.94e-14 PD=6.3e-07 PS=7e-07 $X=77550 $Y=82290 $D=1
M2 37 128 126 211 NMOS_VTL L=5e-08 W=2.1e-07 AD=3.395e-14 AS=2.205e-14 PD=8.3e-07 PS=6.3e-07 $X=77890 $Y=82290 $D=1
M3 205 124 37 211 NMOS_VTL L=5e-08 W=2.75e-07 AD=3.85e-14 AS=3.395e-14 PD=8.3e-07 PS=8.3e-07 $X=78080 $Y=82290 $D=1
M4 129 128 205 211 NMOS_VTL L=5e-08 W=2.75e-07 AD=3.0125e-14 AS=3.85e-14 PD=8.7e-07 PS=8.3e-07 $X=78270 $Y=82290 $D=1
M5 206 126 129 211 NMOS_VTL L=5e-08 W=9e-08 AD=1.26e-14 AS=3.0125e-14 PD=4.6e-07 PS=8.7e-07 $X=78480 $Y=82360 $D=1
M6 37 127 206 211 NMOS_VTL L=5e-08 W=9e-08 AD=3.58e-14 AS=1.26e-14 PD=1.12e-06 PS=4.6e-07 $X=78670 $Y=82360 $D=1
M7 127 129 37 211 NMOS_VTL L=5e-08 W=4.15e-07 AD=5.81e-14 AS=3.58e-14 PD=1.11e-06 PS=1.12e-06 $X=78865 $Y=82290 $D=1
M8 37 129 127 211 NMOS_VTL L=5e-08 W=4.15e-07 AD=4.3575e-14 AS=5.81e-14 PD=1.04e-06 PS=1.11e-06 $X=79055 $Y=82290 $D=1
M9 37 131 128 211 NMOS_VTL L=5e-08 W=2.1e-07 AD=4.69e-14 AS=3.36e-14 PD=1.14e-06 PS=7.4e-07 $X=79450 $Y=82290 $D=1
M10 207 131 37 211 NMOS_VTL L=5e-08 W=4.15e-07 AD=5.81e-14 AS=4.69e-14 PD=1.11e-06 PS=1.14e-06 $X=79655 $Y=82290 $D=1
M11 130 129 207 211 NMOS_VTL L=5e-08 W=4.15e-07 AD=5.81e-14 AS=5.81e-14 PD=1.11e-06 PS=1.11e-06 $X=79845 $Y=82290 $D=1
M12 208 129 130 211 NMOS_VTL L=5e-08 W=4.15e-07 AD=5.81e-14 AS=5.81e-14 PD=1.11e-06 PS=1.11e-06 $X=80035 $Y=82290 $D=1
M13 37 131 208 211 NMOS_VTL L=5e-08 W=4.15e-07 AD=5.81e-14 AS=5.81e-14 PD=1.11e-06 PS=1.11e-06 $X=80225 $Y=82290 $D=1
M14 209 131 37 211 NMOS_VTL L=5e-08 W=4.15e-07 AD=5.81e-14 AS=5.81e-14 PD=1.11e-06 PS=1.11e-06 $X=80415 $Y=82290 $D=1
M15 130 129 209 211 NMOS_VTL L=5e-08 W=4.15e-07 AD=5.81e-14 AS=5.81e-14 PD=1.11e-06 PS=1.11e-06 $X=80605 $Y=82290 $D=1
M16 210 129 130 211 NMOS_VTL L=5e-08 W=4.15e-07 AD=5.81e-14 AS=5.81e-14 PD=1.11e-06 PS=1.11e-06 $X=80795 $Y=82290 $D=1
M17 37 131 210 211 NMOS_VTL L=5e-08 W=4.15e-07 AD=4.27e-14 AS=5.81e-14 PD=1.11e-06 PS=1.11e-06 $X=80985 $Y=82290 $D=1
M18 40 130 37 211 NMOS_VTL L=5e-08 W=1.95e-07 AD=2.73e-14 AS=4.27e-14 PD=6.7e-07 PS=1.11e-06 $X=81175 $Y=82290 $D=1
M19 37 130 40 211 NMOS_VTL L=5e-08 W=1.95e-07 AD=2.73e-14 AS=2.73e-14 PD=6.7e-07 PS=6.7e-07 $X=81365 $Y=82290 $D=1
M20 40 130 37 211 NMOS_VTL L=5e-08 W=1.95e-07 AD=2.73e-14 AS=2.73e-14 PD=6.7e-07 PS=6.7e-07 $X=81555 $Y=82290 $D=1
M21 37 130 40 211 NMOS_VTL L=5e-08 W=1.95e-07 AD=2.73e-14 AS=2.73e-14 PD=6.7e-07 PS=6.7e-07 $X=81745 $Y=82290 $D=1
M22 40 130 37 211 NMOS_VTL L=5e-08 W=1.95e-07 AD=2.73e-14 AS=2.73e-14 PD=6.7e-07 PS=6.7e-07 $X=81935 $Y=82290 $D=1
M23 37 130 40 211 NMOS_VTL L=5e-08 W=1.95e-07 AD=2.73e-14 AS=2.73e-14 PD=6.7e-07 PS=6.7e-07 $X=82125 $Y=82290 $D=1
M24 40 130 37 211 NMOS_VTL L=5e-08 W=1.95e-07 AD=2.73e-14 AS=2.73e-14 PD=6.7e-07 PS=6.7e-07 $X=82315 $Y=82290 $D=1
M25 37 130 40 211 NMOS_VTL L=5e-08 W=1.95e-07 AD=2.0475e-14 AS=2.73e-14 PD=6e-07 PS=6.7e-07 $X=82505 $Y=82290 $D=1
M26 202 37 124 213 PMOS_VTL L=5e-08 W=3.15e-07 AD=4.41e-14 AS=3.3075e-14 PD=9.1e-07 PS=8.4e-07 $X=77360 $Y=83195 $D=0
M27 28 125 202 213 PMOS_VTL L=5e-08 W=3.15e-07 AD=3.3075e-14 AS=4.41e-14 PD=8.4e-07 PS=9.1e-07 $X=77550 $Y=83195 $D=0
M28 28 128 126 213 PMOS_VTL L=5e-08 W=3.15e-07 AD=5.145e-14 AS=3.3075e-14 PD=1.12e-06 PS=8.4e-07 $X=77890 $Y=83195 $D=0
M29 203 124 28 213 PMOS_VTL L=5e-08 W=4.2e-07 AD=5.88e-14 AS=5.145e-14 PD=1.12e-06 PS=1.12e-06 $X=78080 $Y=83090 $D=0
M30 129 126 203 213 PMOS_VTL L=5e-08 W=4.2e-07 AD=4.245e-14 AS=5.88e-14 PD=1.16e-06 PS=1.12e-06 $X=78270 $Y=83090 $D=0
M31 204 128 129 213 PMOS_VTL L=5e-08 W=9e-08 AD=1.26e-14 AS=4.245e-14 PD=4.6e-07 PS=1.16e-06 $X=78480 $Y=83280 $D=0
M32 28 127 204 213 PMOS_VTL L=5e-08 W=9e-08 AD=5.085e-14 AS=1.26e-14 PD=1.55e-06 PS=4.6e-07 $X=78670 $Y=83280 $D=0
M33 127 129 28 213 PMOS_VTL L=5e-08 W=6.3e-07 AD=8.82e-14 AS=5.085e-14 PD=1.54e-06 PS=1.55e-06 $X=78865 $Y=82880 $D=0
M34 28 129 127 213 PMOS_VTL L=5e-08 W=6.3e-07 AD=6.615e-14 AS=8.82e-14 PD=1.47e-06 PS=1.54e-06 $X=79055 $Y=82880 $D=0
M35 28 131 128 213 PMOS_VTL L=5e-08 W=3.15e-07 AD=8.19e-14 AS=5.04e-14 PD=1.57e-06 PS=9.5e-07 $X=79450 $Y=82990 $D=0
M36 130 131 28 213 PMOS_VTL L=5e-08 W=6.3e-07 AD=8.82e-14 AS=8.19e-14 PD=1.54e-06 PS=1.57e-06 $X=79655 $Y=82880 $D=0
M37 28 129 130 213 PMOS_VTL L=5e-08 W=6.3e-07 AD=8.82e-14 AS=8.82e-14 PD=1.54e-06 PS=1.54e-06 $X=79845 $Y=82880 $D=0
M38 130 129 28 213 PMOS_VTL L=5e-08 W=6.3e-07 AD=8.82e-14 AS=8.82e-14 PD=1.54e-06 PS=1.54e-06 $X=80035 $Y=82880 $D=0
M39 28 131 130 213 PMOS_VTL L=5e-08 W=6.3e-07 AD=8.82e-14 AS=8.82e-14 PD=1.54e-06 PS=1.54e-06 $X=80225 $Y=82880 $D=0
M40 130 131 28 213 PMOS_VTL L=5e-08 W=6.3e-07 AD=8.82e-14 AS=8.82e-14 PD=1.54e-06 PS=1.54e-06 $X=80415 $Y=82880 $D=0
M41 28 129 130 213 PMOS_VTL L=5e-08 W=6.3e-07 AD=8.82e-14 AS=8.82e-14 PD=1.54e-06 PS=1.54e-06 $X=80605 $Y=82880 $D=0
M42 130 129 28 213 PMOS_VTL L=5e-08 W=6.3e-07 AD=8.82e-14 AS=8.82e-14 PD=1.54e-06 PS=1.54e-06 $X=80795 $Y=82880 $D=0
M43 28 131 130 213 PMOS_VTL L=5e-08 W=6.3e-07 AD=8.82e-14 AS=8.82e-14 PD=1.54e-06 PS=1.54e-06 $X=80985 $Y=82880 $D=0
M44 40 130 28 213 PMOS_VTL L=5e-08 W=6.3e-07 AD=8.82e-14 AS=8.82e-14 PD=1.54e-06 PS=1.54e-06 $X=81175 $Y=82880 $D=0
M45 28 130 40 213 PMOS_VTL L=5e-08 W=6.3e-07 AD=8.82e-14 AS=8.82e-14 PD=1.54e-06 PS=1.54e-06 $X=81365 $Y=82880 $D=0
M46 40 130 28 213 PMOS_VTL L=5e-08 W=6.3e-07 AD=8.82e-14 AS=8.82e-14 PD=1.54e-06 PS=1.54e-06 $X=81555 $Y=82880 $D=0
M47 28 130 40 213 PMOS_VTL L=5e-08 W=6.3e-07 AD=8.82e-14 AS=8.82e-14 PD=1.54e-06 PS=1.54e-06 $X=81745 $Y=82880 $D=0
M48 40 130 28 213 PMOS_VTL L=5e-08 W=6.3e-07 AD=8.82e-14 AS=8.82e-14 PD=1.54e-06 PS=1.54e-06 $X=81935 $Y=82880 $D=0
M49 28 130 40 213 PMOS_VTL L=5e-08 W=6.3e-07 AD=8.82e-14 AS=8.82e-14 PD=1.54e-06 PS=1.54e-06 $X=82125 $Y=82880 $D=0
M50 40 130 28 213 PMOS_VTL L=5e-08 W=6.3e-07 AD=8.82e-14 AS=8.82e-14 PD=1.54e-06 PS=1.54e-06 $X=82315 $Y=82880 $D=0
M51 28 130 40 213 PMOS_VTL L=5e-08 W=6.3e-07 AD=6.615e-14 AS=8.82e-14 PD=1.47e-06 PS=1.54e-06 $X=82505 $Y=82880 $D=0
X694 27 37 28 24 212 213 CLKBUF_X3 $T=83840 85000 1 0 $X=83725 $Y=83485
X962 164 1 37 28 54 98 214 DFF_X1 $T=1000 79400 0 0 $X=885 $Y=79285
X963 132 1 37 28 41 211 214 DFF_X1 $T=1000 82200 1 0 $X=885 $Y=80685
X964 165 1 37 28 60 212 213 DFF_X1 $T=1000 85000 1 0 $X=885 $Y=83485
X965 166 1 37 28 61 212 213 DFF_X1 $T=4230 85000 1 0 $X=4115 $Y=83485
X966 182 1 37 28 62 211 213 DFF_X1 $T=6700 82200 0 0 $X=6585 $Y=82085
X967 167 1 37 28 29 211 214 DFF_X1 $T=11450 82200 1 0 $X=11335 $Y=80685
X968 168 1 37 28 63 212 213 DFF_X1 $T=11830 85000 1 0 $X=11715 $Y=83485
X969 169 1 37 28 43 212 213 DFF_X1 $T=15060 85000 1 0 $X=14945 $Y=83485
X970 183 1 37 28 30 211 214 DFF_X1 $T=20950 82200 0 180 $X=17605 $Y=80685
X971 106 1 37 28 31 212 213 DFF_X1 $T=18290 85000 1 0 $X=18175 $Y=83485
X972 184 1 37 28 64 211 214 DFF_X1 $T=24180 82200 0 180 $X=20835 $Y=80685
X973 170 1 37 28 32 212 213 DFF_X1 $T=21520 85000 1 0 $X=21405 $Y=83485
X974 136 1 37 28 65 211 213 DFF_X1 $T=27600 82200 0 0 $X=27485 $Y=82085
X975 171 7 37 28 45 211 214 DFF_X1 $T=30450 82200 1 0 $X=30335 $Y=80685
X976 172 1 37 28 46 212 213 DFF_X1 $T=31210 85000 1 0 $X=31095 $Y=83485
X977 173 7 37 28 48 98 214 DFF_X1 $T=34440 79400 0 0 $X=34325 $Y=79285
X978 185 7 37 28 55 212 213 DFF_X1 $T=40140 85000 0 180 $X=36795 $Y=83485
X979 174 7 37 28 56 211 214 DFF_X1 $T=43180 82200 1 0 $X=43065 $Y=80685
X980 175 1 37 28 35 212 213 DFF_X1 $T=43180 85000 1 0 $X=43065 $Y=83485
X981 147 1 37 28 66 212 213 DFF_X1 $T=48120 85000 1 0 $X=48005 $Y=83485
X982 176 1 37 28 67 212 213 DFF_X1 $T=56290 85000 1 0 $X=56175 $Y=83485
X983 177 1 37 28 51 212 213 DFF_X1 $T=59520 85000 1 0 $X=59405 $Y=83485
X984 178 1 37 28 38 211 213 DFF_X1 $T=62750 82200 0 0 $X=62635 $Y=82085
X985 179 1 37 28 68 212 213 DFF_X1 $T=65980 85000 1 0 $X=65865 $Y=83485
X986 163 1 37 28 58 98 214 DFF_X1 $T=74720 79400 0 0 $X=74605 $Y=79285
X987 180 1 37 28 52 212 213 DFF_X1 $T=74720 85000 1 0 $X=74605 $Y=83485
X988 181 1 37 28 59 212 213 DFF_X1 $T=80610 85000 1 0 $X=80495 $Y=83485
X989 162 1 37 28 53 211 214 DFF_X1 $T=81560 82200 1 0 $X=81445 $Y=80685
X1109 194 37 28 69 211 213 CLKBUF_X1 $T=33680 82200 1 180 $X=32995 $Y=82085
X1110 138 37 28 171 212 213 CLKBUF_X1 $T=35770 85000 0 180 $X=35085 $Y=83485
X1111 195 37 28 88 211 213 CLKBUF_X1 $T=36530 82200 1 180 $X=35845 $Y=82085
X1112 140 37 28 173 211 213 CLKBUF_X1 $T=38430 82200 1 180 $X=37745 $Y=82085
X1113 141 37 28 34 211 214 CLKBUF_X1 $T=39000 82200 0 180 $X=38315 $Y=80685
X1114 143 37 28 49 211 214 CLKBUF_X1 $T=41090 82200 0 180 $X=40405 $Y=80685
X1115 142 37 28 185 212 213 CLKBUF_X1 $T=41470 85000 0 180 $X=40785 $Y=83485
X1116 145 37 28 174 212 213 CLKBUF_X1 $T=42610 85000 1 0 $X=42495 $Y=83485
X1117 24 37 28 131 212 213 CLKBUF_X1 $T=79660 85000 1 0 $X=79545 $Y=83485
X1225 39 26 37 28 125 211 214 OR2_X1 $T=73770 82200 1 0 $X=73655 $Y=80685
X1226 39 26 37 28 73 98 214 OR2_X1 $T=73960 79400 0 0 $X=73845 $Y=79285
X1227 39 26 37 28 116 212 213 OR2_X1 $T=77950 85000 1 0 $X=77835 $Y=83485
X1310 36 2 37 28 164 98 214 AND2_X1 $T=5750 79400 0 0 $X=5635 $Y=79285
X1311 36 99 37 28 132 211 214 AND2_X1 $T=6700 82200 0 180 $X=5825 $Y=80685
X1312 36 100 37 28 165 211 213 AND2_X1 $T=6700 82200 1 180 $X=5825 $Y=82085
X1313 36 101 37 28 166 211 214 AND2_X1 $T=6700 82200 1 0 $X=6585 $Y=80685
X1314 36 102 37 28 182 211 214 AND2_X1 $T=11450 82200 0 180 $X=10575 $Y=80685
X1315 36 103 37 28 168 98 214 AND2_X1 $T=12020 79400 0 0 $X=11905 $Y=79285
X1316 36 104 37 28 167 98 214 AND2_X1 $T=15060 79400 0 0 $X=14945 $Y=79285
X1317 36 105 37 28 169 211 214 AND2_X1 $T=17720 82200 0 180 $X=16845 $Y=80685
X1318 36 107 37 28 183 98 214 AND2_X1 $T=20190 79400 1 180 $X=19315 $Y=79285
X1319 36 4 37 28 106 98 214 AND2_X1 $T=20950 79400 0 0 $X=20835 $Y=79285
X1320 36 5 37 28 184 98 214 AND2_X1 $T=23610 79400 1 180 $X=22735 $Y=79285
X1321 36 108 37 28 170 98 214 AND2_X1 $T=26080 79400 0 0 $X=25965 $Y=79285
X1322 36 109 37 28 136 211 214 AND2_X1 $T=28930 82200 0 180 $X=28055 $Y=80685
X1323 36 110 37 28 172 211 214 AND2_X1 $T=29690 82200 1 0 $X=29575 $Y=80685
X1324 47 8 37 28 194 211 213 AND2_X1 $T=34440 82200 1 180 $X=33565 $Y=82085
X1325 47 9 37 28 138 212 213 AND2_X1 $T=35200 85000 0 180 $X=34325 $Y=83485
X1326 47 10 37 28 195 212 213 AND2_X1 $T=35770 85000 1 0 $X=35655 $Y=83485
X1327 47 11 37 28 140 211 213 AND2_X1 $T=37100 82200 0 0 $X=36985 $Y=82085
X1328 47 12 37 28 141 211 214 AND2_X1 $T=39760 82200 0 180 $X=38885 $Y=80685
X1329 47 13 37 28 143 211 214 AND2_X1 $T=39760 82200 1 0 $X=39645 $Y=80685
X1330 36 111 37 28 175 211 213 AND2_X1 $T=40140 82200 0 0 $X=40025 $Y=82085
X1331 47 14 37 28 142 212 213 AND2_X1 $T=40900 85000 0 180 $X=40025 $Y=83485
X1332 47 15 37 28 145 212 213 AND2_X1 $T=41850 85000 1 0 $X=41735 $Y=83485
X1333 36 112 37 28 147 212 213 AND2_X1 $T=46410 85000 1 0 $X=46295 $Y=83485
X1334 36 113 37 28 176 211 213 AND2_X1 $T=52680 82200 1 180 $X=51805 $Y=82085
X1335 36 114 37 28 177 211 213 AND2_X1 $T=52680 82200 0 0 $X=52565 $Y=82085
X1336 36 115 37 28 178 211 213 AND2_X1 $T=61040 82200 0 0 $X=60925 $Y=82085
X1337 36 117 37 28 179 211 213 AND2_X1 $T=65980 82200 0 0 $X=65865 $Y=82085
X1338 36 118 37 28 180 211 213 AND2_X1 $T=66930 82200 0 0 $X=66815 $Y=82085
X1339 36 119 37 28 181 211 213 AND2_X1 $T=71870 82200 0 0 $X=71755 $Y=82085
X1340 36 120 37 28 162 211 214 AND2_X1 $T=73010 82200 0 180 $X=72135 $Y=80685
X1341 36 121 37 28 163 211 214 AND2_X1 $T=73010 82200 1 0 $X=72895 $Y=80685
X1342 36 122 37 28 90 98 214 AND2_X1 $T=73200 79400 0 0 $X=73085 $Y=79285
X1353 186 3 99 42 37 28 98 214 OAI21_X1 $T=8220 79400 0 0 $X=8105 $Y=79285
X1354 133 3 100 42 37 28 211 214 OAI21_X1 $T=8410 82200 1 0 $X=8295 $Y=80685
X1355 134 3 101 42 37 28 211 214 OAI21_X1 $T=9930 82200 0 180 $X=9055 $Y=80685
X1356 198 3 102 42 37 28 98 214 OAI21_X1 $T=11260 79400 0 0 $X=11145 $Y=79285
X1357 78 3 103 42 37 28 98 214 OAI21_X1 $T=13920 79400 1 180 $X=13045 $Y=79285
X1358 79 3 104 42 37 28 98 214 OAI21_X1 $T=16580 79400 0 0 $X=16465 $Y=79285
X1359 80 3 105 42 37 28 98 214 OAI21_X1 $T=18100 79400 1 180 $X=17225 $Y=79285
X1360 81 3 107 42 37 28 98 214 OAI21_X1 $T=20950 79400 1 180 $X=20075 $Y=79285
X1361 82 6 108 44 37 28 98 214 OAI21_X1 $T=25320 79400 0 0 $X=25205 $Y=79285
X1362 135 6 109 44 37 28 211 214 OAI21_X1 $T=27410 82200 1 0 $X=27295 $Y=80685
X1363 137 6 110 44 37 28 98 214 OAI21_X1 $T=29690 79400 1 180 $X=28815 $Y=79285
X1364 139 6 111 44 37 28 211 214 OAI21_X1 $T=36530 82200 1 0 $X=36415 $Y=80685
X1365 144 6 112 44 37 28 211 214 OAI21_X1 $T=41660 82200 1 0 $X=41545 $Y=80685
X1366 146 6 113 44 37 28 211 213 OAI21_X1 $T=47550 82200 0 0 $X=47435 $Y=82085
X1367 196 6 114 44 37 28 211 213 OAI21_X1 $T=50400 82200 1 180 $X=49525 $Y=82085
X1368 197 6 115 44 37 28 211 213 OAI21_X1 $T=55340 82200 0 0 $X=55225 $Y=82085
X1369 200 6 117 44 37 28 211 213 OAI21_X1 $T=58570 82200 0 0 $X=58455 $Y=82085
X1370 152 6 118 44 37 28 211 214 OAI21_X1 $T=63130 82200 1 0 $X=63015 $Y=80685
X1371 156 6 119 44 37 28 211 213 OAI21_X1 $T=67690 82200 0 0 $X=67575 $Y=82085
X1372 123 6 120 44 37 28 211 214 OAI21_X1 $T=69020 82200 0 180 $X=68145 $Y=80685
X1373 201 6 122 44 37 28 98 214 OAI21_X1 $T=69970 79400 0 0 $X=69855 $Y=79285
X1374 160 6 121 44 37 28 211 214 OAI21_X1 $T=69970 82200 1 0 $X=69855 $Y=80685
X1375 158 6 72 44 37 28 98 214 OAI21_X1 $T=71490 79400 0 0 $X=71375 $Y=79285
X1376 74 37 28 186 98 214 INV_X1 $T=7840 79400 0 0 $X=7725 $Y=79285
X1377 75 37 28 133 98 214 INV_X1 $T=9360 79400 1 180 $X=8865 $Y=79285
X1378 76 37 28 134 98 214 INV_X1 $T=10500 79400 1 180 $X=10005 $Y=79285
X1379 77 37 28 198 98 214 INV_X1 $T=13160 79400 1 180 $X=12665 $Y=79285
X1380 83 37 28 135 98 214 INV_X1 $T=26840 79400 0 0 $X=26725 $Y=79285
X1381 84 37 28 137 98 214 INV_X1 $T=28550 79400 0 0 $X=28435 $Y=79285
X1382 85 37 28 139 98 214 INV_X1 $T=32160 79400 0 0 $X=32045 $Y=79285
X1383 86 37 28 144 98 214 INV_X1 $T=37670 79400 0 0 $X=37555 $Y=79285
X1384 26 37 28 47 211 214 INV_X1 $T=41090 82200 1 0 $X=40975 $Y=80685
X1385 87 37 28 146 98 214 INV_X1 $T=42800 79400 0 0 $X=42685 $Y=79285
X1386 50 37 28 196 211 214 INV_X1 $T=46410 82200 1 0 $X=46295 $Y=80685
X1387 148 37 28 197 211 214 INV_X1 $T=49260 82200 1 0 $X=49145 $Y=80685