* SPICE NETLIST
***************************************

*.CALIBRE ABORT_INFO SUPPLY_ERROR
.SUBCKT MGC_via1_1x2_VV_1
** N=1 EP=0 IP=0 FDC=0
.ENDS
***************************************
.SUBCKT MGC_via1_1x2_HV_1
** N=1 EP=0 IP=0 FDC=0
.ENDS
***************************************
.SUBCKT MGC_via2_2x1_HH_0
** N=1 EP=0 IP=0 FDC=0
.ENDS
***************************************
.SUBCKT via1_5
** N=1 EP=0 IP=0 FDC=0
.ENDS
***************************************
.SUBCKT via2_7
** N=1 EP=0 IP=0 FDC=0
.ENDS
***************************************
.SUBCKT ICV_1
** N=1 EP=0 IP=2 FDC=0
.ENDS
***************************************
.SUBCKT FILLCELL_X2
** N=4 EP=0 IP=0 FDC=0
*.CALIBRE ISOLATED NETS: VSS VDD
.ENDS
***************************************
.SUBCKT MGC_via2_2x1_HH_1
** N=1 EP=0 IP=0 FDC=0
.ENDS
***************************************
.SUBCKT FILLCELL_X4
** N=4 EP=0 IP=0 FDC=0
*.CALIBRE ISOLATED NETS: VSS VDD
.ENDS
***************************************
.SUBCKT ICV_2
** N=4 EP=0 IP=8 FDC=0
.ENDS
***************************************
.SUBCKT ICV_3
** N=4 EP=0 IP=8 FDC=0
.ENDS
***************************************
.SUBCKT MGC_via2_2x1_HH
** N=1 EP=0 IP=0 FDC=0
.ENDS
***************************************
.SUBCKT ICV_4
** N=1 EP=0 IP=2 FDC=0
.ENDS
***************************************
.SUBCKT FILLCELL_X8
** N=4 EP=0 IP=0 FDC=0
*.CALIBRE ISOLATED NETS: VSS VDD
.ENDS
***************************************
.SUBCKT MGC_via1_1x2_VV_0
** N=1 EP=0 IP=0 FDC=0
.ENDS
***************************************
.SUBCKT MGC_via1_2x1_VH_0
** N=1 EP=0 IP=0 FDC=0
.ENDS
***************************************
.SUBCKT ICV_5
** N=1 EP=0 IP=2 FDC=0
.ENDS
***************************************
.SUBCKT MGC_via1_1x2_VV
** N=1 EP=0 IP=0 FDC=0
.ENDS
***************************************
.SUBCKT AND2_X1 A1 A2 VSS VDD ZN 6 7
** N=9 EP=7 IP=0 FDC=6
M0 9 A1 8 6 NMOS_VTL L=5e-08 W=2.1e-07 AD=2.94e-14 AS=2.205e-14 PD=7e-07 PS=6.3e-07 $X=145 $Y=90 $D=1
M1 VSS A2 9 6 NMOS_VTL L=5e-08 W=2.1e-07 AD=4.375e-14 AS=2.94e-14 PD=1.11e-06 PS=7e-07 $X=335 $Y=90 $D=1
M2 ZN 8 VSS 6 NMOS_VTL L=5e-08 W=4.15e-07 AD=4.3575e-14 AS=4.375e-14 PD=1.04e-06 PS=1.11e-06 $X=525 $Y=90 $D=1
M3 8 A1 VDD 7 PMOS_VTL L=5e-08 W=3.15e-07 AD=4.41e-14 AS=3.3075e-14 PD=9.1e-07 PS=8.4e-07 $X=145 $Y=995 $D=0
M4 VDD A2 8 7 PMOS_VTL L=5e-08 W=3.15e-07 AD=6.615e-14 AS=4.41e-14 PD=1.54e-06 PS=9.1e-07 $X=335 $Y=995 $D=0
M5 ZN 8 VDD 7 PMOS_VTL L=5e-08 W=6.3e-07 AD=6.615e-14 AS=6.615e-14 PD=1.47e-06 PS=1.54e-06 $X=525 $Y=680 $D=0
.ENDS
***************************************
.SUBCKT FILLCELL_X16
** N=4 EP=0 IP=0 FDC=0
*.CALIBRE ISOLATED NETS: VSS VDD
.ENDS
***************************************
.SUBCKT DFF_X1 D CK VSS VDD Q 6 7
** N=22 EP=7 IP=0 FDC=28
M0 VSS 11 8 6 NMOS_VTL L=5e-08 W=2.1e-07 AD=2.1e-14 AS=2.205e-14 PD=7e-07 PS=6.3e-07 $X=160 $Y=180 $D=1
M1 19 10 VSS 6 NMOS_VTL L=5e-08 W=9e-08 AD=1.26e-14 AS=2.1e-14 PD=4.6e-07 PS=7e-07 $X=350 $Y=300 $D=1
M2 9 8 19 6 NMOS_VTL L=5e-08 W=9e-08 AD=2.6e-14 AS=1.26e-14 PD=8.4e-07 PS=4.6e-07 $X=540 $Y=300 $D=1
M3 20 11 9 6 NMOS_VTL L=5e-08 W=2.75e-07 AD=3.85e-14 AS=2.6e-14 PD=8.3e-07 PS=8.4e-07 $X=735 $Y=180 $D=1
M4 VSS D 20 6 NMOS_VTL L=5e-08 W=2.75e-07 AD=3.395e-14 AS=3.85e-14 PD=8.3e-07 PS=8.3e-07 $X=925 $Y=180 $D=1
M5 10 9 VSS 6 NMOS_VTL L=5e-08 W=2.1e-07 AD=2.205e-14 AS=3.395e-14 PD=6.3e-07 PS=8.3e-07 $X=1115 $Y=180 $D=1
M6 VSS CK 11 6 NMOS_VTL L=5e-08 W=2.1e-07 AD=2.94e-14 AS=2.205e-14 PD=7e-07 PS=6.3e-07 $X=1530 $Y=255 $D=1
M7 21 9 VSS 6 NMOS_VTL L=5e-08 W=2.1e-07 AD=2.94e-14 AS=2.94e-14 PD=7e-07 PS=7e-07 $X=1720 $Y=255 $D=1
M8 12 8 21 6 NMOS_VTL L=5e-08 W=2.1e-07 AD=2.1e-14 AS=2.94e-14 PD=7e-07 PS=7e-07 $X=1910 $Y=255 $D=1
M9 22 11 12 6 NMOS_VTL L=5e-08 W=9e-08 AD=1.305e-14 AS=2.1e-14 PD=4.7e-07 PS=7e-07 $X=2100 $Y=300 $D=1
M10 VSS 14 22 6 NMOS_VTL L=5e-08 W=9e-08 AD=2.1e-14 AS=1.305e-14 PD=7e-07 PS=4.7e-07 $X=2295 $Y=300 $D=1
M11 14 12 VSS 6 NMOS_VTL L=5e-08 W=2.1e-07 AD=2.205e-14 AS=2.1e-14 PD=6.3e-07 PS=7e-07 $X=2485 $Y=255 $D=1
M12 VSS 12 QN 6 NMOS_VTL L=5e-08 W=4.15e-07 AD=5.81e-14 AS=4.3575e-14 PD=1.11e-06 PS=1.04e-06 $X=2825 $Y=90 $D=1
M13 Q 14 VSS 6 NMOS_VTL L=5e-08 W=4.15e-07 AD=4.3575e-14 AS=5.81e-14 PD=1.04e-06 PS=1.11e-06 $X=3015 $Y=90 $D=1
M14 VDD 11 8 7 PMOS_VTL L=5e-08 W=3.15e-07 AD=2.835e-14 AS=3.3075e-14 PD=9.1e-07 PS=8.4e-07 $X=160 $Y=785 $D=0
M15 15 10 VDD 7 PMOS_VTL L=5e-08 W=9e-08 AD=1.26e-14 AS=2.835e-14 PD=4.6e-07 PS=9.1e-07 $X=350 $Y=1010 $D=0
M16 9 11 15 7 PMOS_VTL L=5e-08 W=9e-08 AD=3.615e-14 AS=1.26e-14 PD=1.13e-06 PS=4.6e-07 $X=540 $Y=1010 $D=0
M17 16 8 9 7 PMOS_VTL L=5e-08 W=4.2e-07 AD=5.88e-14 AS=3.615e-14 PD=1.12e-06 PS=1.13e-06 $X=735 $Y=765 $D=0
M18 VDD D 16 7 PMOS_VTL L=5e-08 W=4.2e-07 AD=5.145e-14 AS=5.88e-14 PD=1.12e-06 PS=1.12e-06 $X=925 $Y=765 $D=0
M19 10 9 VDD 7 PMOS_VTL L=5e-08 W=3.15e-07 AD=5.67e-14 AS=5.145e-14 PD=9.9e-07 PS=1.12e-06 $X=1115 $Y=870 $D=0
M20 VDD CK 11 7 PMOS_VTL L=5e-08 W=3.15e-07 AD=4.41e-14 AS=3.3075e-14 PD=9.1e-07 PS=8.4e-07 $X=1530 $Y=870 $D=0
M21 17 9 VDD 7 PMOS_VTL L=5e-08 W=3.15e-07 AD=4.41e-14 AS=4.41e-14 PD=9.1e-07 PS=9.1e-07 $X=1720 $Y=870 $D=0
M22 12 11 17 7 PMOS_VTL L=5e-08 W=3.15e-07 AD=2.835e-14 AS=4.41e-14 PD=9.1e-07 PS=9.1e-07 $X=1910 $Y=870 $D=0
M23 18 8 12 7 PMOS_VTL L=5e-08 W=9e-08 AD=1.305e-14 AS=2.835e-14 PD=4.7e-07 PS=9.1e-07 $X=2100 $Y=1095 $D=0
M24 VDD 14 18 7 PMOS_VTL L=5e-08 W=9e-08 AD=2.835e-14 AS=1.305e-14 PD=9.1e-07 PS=4.7e-07 $X=2295 $Y=1095 $D=0
M25 14 12 VDD 7 PMOS_VTL L=5e-08 W=3.15e-07 AD=3.3075e-14 AS=2.835e-14 PD=8.4e-07 PS=9.1e-07 $X=2485 $Y=870 $D=0
M26 VDD 12 QN 7 PMOS_VTL L=5e-08 W=6.3e-07 AD=8.82e-14 AS=6.615e-14 PD=1.54e-06 PS=1.47e-06 $X=2825 $Y=680 $D=0
M27 Q 14 VDD 7 PMOS_VTL L=5e-08 W=6.3e-07 AD=6.615e-14 AS=8.82e-14 PD=1.47e-06 PS=1.54e-06 $X=3015 $Y=680 $D=0
.ENDS
***************************************
.SUBCKT MGC_via1_1x2_HV_0
** N=1 EP=0 IP=0 FDC=0
.ENDS
***************************************
.SUBCKT MGC_via1_2x1_VH_1
** N=1 EP=0 IP=0 FDC=0
.ENDS
***************************************
.SUBCKT via2_5
** N=1 EP=0 IP=0 FDC=0
.ENDS
***************************************
.SUBCKT MGC_via2_1x2_VH_1
** N=1 EP=0 IP=0 FDC=0
.ENDS
***************************************
.SUBCKT MGC_via2_1x2_VV_0
** N=1 EP=0 IP=0 FDC=0
.ENDS
***************************************
.SUBCKT MGC_via2_1x2_VH_0
** N=1 EP=0 IP=0 FDC=0
.ENDS
***************************************
.SUBCKT FILLCELL_X32
** N=4 EP=0 IP=0 FDC=0
*.CALIBRE ISOLATED NETS: VSS VDD
.ENDS
***************************************
.SUBCKT MGC_via2_2x1_VH_0
** N=1 EP=0 IP=0 FDC=0
.ENDS
***************************************
.SUBCKT MGC_via1_1x2_HV
** N=1 EP=0 IP=0 FDC=0
.ENDS
***************************************
.SUBCKT INV_X1 A VSS VDD ZN 5 6
** N=6 EP=6 IP=0 FDC=2
M0 ZN A VSS 5 NMOS_VTL L=5e-08 W=4.15e-07 AD=4.3575e-14 AS=4.3575e-14 PD=1.04e-06 PS=1.04e-06 $X=145 $Y=90 $D=1
M1 ZN A VDD 6 PMOS_VTL L=5e-08 W=6.3e-07 AD=6.615e-14 AS=6.615e-14 PD=1.47e-06 PS=1.47e-06 $X=145 $Y=680 $D=0
.ENDS
***************************************
.SUBCKT MGC_via2_1x2_VV
** N=1 EP=0 IP=0 FDC=0
.ENDS
***************************************
.SUBCKT via1_7
** N=1 EP=0 IP=0 FDC=0
.ENDS
***************************************
.SUBCKT AOI222_X1 C2 C1 VDD B1 B2 A2 VSS A1 ZN 10 11
** N=16 EP=11 IP=0 FDC=12
M0 14 C2 VSS 10 NMOS_VTL L=5e-08 W=4.15e-07 AD=5.81e-14 AS=4.3575e-14 PD=1.11e-06 PS=1.04e-06 $X=145 $Y=90 $D=1
M1 ZN C1 14 10 NMOS_VTL L=5e-08 W=4.15e-07 AD=1.2035e-13 AS=5.81e-14 PD=1.41e-06 PS=1.11e-06 $X=335 $Y=90 $D=1
M2 15 B1 ZN 10 NMOS_VTL L=5e-08 W=4.15e-07 AD=5.81e-14 AS=1.2035e-13 PD=1.11e-06 PS=1.41e-06 $X=675 $Y=90 $D=1
M3 VSS B2 15 10 NMOS_VTL L=5e-08 W=4.15e-07 AD=5.81e-14 AS=5.81e-14 PD=1.11e-06 PS=1.11e-06 $X=865 $Y=90 $D=1
M4 16 A2 VSS 10 NMOS_VTL L=5e-08 W=4.15e-07 AD=5.81e-14 AS=5.81e-14 PD=1.11e-06 PS=1.11e-06 $X=1055 $Y=90 $D=1
M5 ZN A1 16 10 NMOS_VTL L=5e-08 W=4.15e-07 AD=4.3575e-14 AS=5.81e-14 PD=1.04e-06 PS=1.11e-06 $X=1245 $Y=90 $D=1
M6 12 C2 VDD 11 PMOS_VTL L=5e-08 W=6.3e-07 AD=8.82e-14 AS=6.615e-14 PD=1.54e-06 PS=1.47e-06 $X=145 $Y=680 $D=0
M7 VDD C1 12 11 PMOS_VTL L=5e-08 W=6.3e-07 AD=6.615e-14 AS=8.82e-14 PD=1.47e-06 PS=1.54e-06 $X=335 $Y=680 $D=0
M8 12 B1 13 11 PMOS_VTL L=5e-08 W=6.3e-07 AD=8.82e-14 AS=6.615e-14 PD=1.54e-06 PS=1.47e-06 $X=675 $Y=680 $D=0
M9 13 B2 12 11 PMOS_VTL L=5e-08 W=6.3e-07 AD=8.82e-14 AS=8.82e-14 PD=1.54e-06 PS=1.54e-06 $X=865 $Y=680 $D=0
M10 ZN A2 13 11 PMOS_VTL L=5e-08 W=6.3e-07 AD=8.82e-14 AS=8.82e-14 PD=1.54e-06 PS=1.54e-06 $X=1055 $Y=680 $D=0
M11 13 A1 ZN 11 PMOS_VTL L=5e-08 W=6.3e-07 AD=6.615e-14 AS=8.82e-14 PD=1.47e-06 PS=1.54e-06 $X=1245 $Y=680 $D=0
.ENDS
***************************************
.SUBCKT MGC_via2_1x2_VV_1
** N=1 EP=0 IP=0 FDC=0
.ENDS
***************************************
.SUBCKT MGC_via1_2x1_HH_1
** N=1 EP=0 IP=0 FDC=0
.ENDS
***************************************
.SUBCKT MGC_via2_2x1_VH_1
** N=1 EP=0 IP=0 FDC=0
.ENDS
***************************************
.SUBCKT DLH_X1 G Q D VSS VDD 6 7
** N=15 EP=7 IP=0 FDC=16
M0 VSS G 8 6 NMOS_VTL L=5e-08 W=2.1e-07 AD=4.375e-14 AS=2.205e-14 PD=1.11e-06 PS=6.3e-07 $X=170 $Y=90 $D=1
M1 Q 10 VSS 6 NMOS_VTL L=5e-08 W=4.15e-07 AD=4.3575e-14 AS=4.375e-14 PD=1.04e-06 PS=1.11e-06 $X=360 $Y=90 $D=1
M2 VSS 8 9 6 NMOS_VTL L=5e-08 W=2.1e-07 AD=2.94e-14 AS=2.205e-14 PD=7e-07 PS=6.3e-07 $X=755 $Y=215 $D=1
M3 14 D VSS 6 NMOS_VTL L=5e-08 W=2.1e-07 AD=2.94e-14 AS=2.94e-14 PD=7e-07 PS=7e-07 $X=945 $Y=215 $D=1
M4 10 9 14 6 NMOS_VTL L=5e-08 W=2.1e-07 AD=2.1e-14 AS=2.94e-14 PD=7e-07 PS=7e-07 $X=1135 $Y=215 $D=1
M5 15 8 10 6 NMOS_VTL L=5e-08 W=9e-08 AD=1.26e-14 AS=2.1e-14 PD=4.6e-07 PS=7e-07 $X=1325 $Y=335 $D=1
M6 VSS 11 15 6 NMOS_VTL L=5e-08 W=9e-08 AD=1.26e-14 AS=1.26e-14 PD=4.6e-07 PS=4.6e-07 $X=1515 $Y=335 $D=1
M7 11 10 VSS 6 NMOS_VTL L=5e-08 W=9e-08 AD=9.45e-15 AS=1.26e-14 PD=3.9e-07 PS=4.6e-07 $X=1705 $Y=335 $D=1
M8 VDD G 8 7 PMOS_VTL L=5e-08 W=3.15e-07 AD=6.615e-14 AS=3.3075e-14 PD=1.54e-06 PS=8.4e-07 $X=170 $Y=995 $D=0
M9 Q 10 VDD 7 PMOS_VTL L=5e-08 W=6.3e-07 AD=6.615e-14 AS=6.615e-14 PD=1.47e-06 PS=1.54e-06 $X=360 $Y=680 $D=0
M10 VDD 8 9 7 PMOS_VTL L=5e-08 W=3.15e-07 AD=4.41e-14 AS=3.3075e-14 PD=9.1e-07 PS=8.4e-07 $X=755 $Y=815 $D=0
M11 12 D VDD 7 PMOS_VTL L=5e-08 W=3.15e-07 AD=4.41e-14 AS=4.41e-14 PD=9.1e-07 PS=9.1e-07 $X=945 $Y=815 $D=0
M12 10 8 12 7 PMOS_VTL L=5e-08 W=3.15e-07 AD=2.835e-14 AS=4.41e-14 PD=9.1e-07 PS=9.1e-07 $X=1135 $Y=815 $D=0
M13 13 9 10 7 PMOS_VTL L=5e-08 W=9e-08 AD=1.26e-14 AS=2.835e-14 PD=4.6e-07 PS=9.1e-07 $X=1325 $Y=1040 $D=0
M14 VDD 11 13 7 PMOS_VTL L=5e-08 W=9e-08 AD=1.26e-14 AS=1.26e-14 PD=4.6e-07 PS=4.6e-07 $X=1515 $Y=1040 $D=0
M15 11 10 VDD 7 PMOS_VTL L=5e-08 W=9e-08 AD=9.45e-15 AS=1.26e-14 PD=3.9e-07 PS=4.6e-07 $X=1705 $Y=1040 $D=0
.ENDS
***************************************
.SUBCKT NOR4_X1 A4 VDD A3 A2 A1 ZN VSS 8 9
** N=12 EP=9 IP=0 FDC=8
M0 ZN A4 VSS 8 NMOS_VTL L=5e-08 W=4.15e-07 AD=5.81e-14 AS=4.3575e-14 PD=1.11e-06 PS=1.04e-06 $X=145 $Y=90 $D=1
M1 VSS A3 ZN 8 NMOS_VTL L=5e-08 W=4.15e-07 AD=5.81e-14 AS=5.81e-14 PD=1.11e-06 PS=1.11e-06 $X=335 $Y=90 $D=1
M2 ZN A2 VSS 8 NMOS_VTL L=5e-08 W=4.15e-07 AD=5.81e-14 AS=5.81e-14 PD=1.11e-06 PS=1.11e-06 $X=525 $Y=90 $D=1
M3 VSS A1 ZN 8 NMOS_VTL L=5e-08 W=4.15e-07 AD=4.3575e-14 AS=5.81e-14 PD=1.04e-06 PS=1.11e-06 $X=715 $Y=90 $D=1
M4 10 A4 VDD 9 PMOS_VTL L=5e-08 W=6.3e-07 AD=8.82e-14 AS=6.615e-14 PD=1.54e-06 PS=1.47e-06 $X=145 $Y=680 $D=0
M5 11 A3 10 9 PMOS_VTL L=5e-08 W=6.3e-07 AD=8.82e-14 AS=8.82e-14 PD=1.54e-06 PS=1.54e-06 $X=335 $Y=680 $D=0
M6 12 A2 11 9 PMOS_VTL L=5e-08 W=6.3e-07 AD=8.82e-14 AS=8.82e-14 PD=1.54e-06 PS=1.54e-06 $X=525 $Y=680 $D=0
M7 ZN A1 12 9 PMOS_VTL L=5e-08 W=6.3e-07 AD=6.615e-14 AS=8.82e-14 PD=1.47e-06 PS=1.54e-06 $X=715 $Y=680 $D=0
.ENDS
***************************************
.SUBCKT NAND4_X1 A4 VSS A3 A2 A1 ZN VDD 8 9
** N=12 EP=9 IP=0 FDC=8
M0 10 A4 VSS 8 NMOS_VTL L=5e-08 W=4.15e-07 AD=5.81e-14 AS=4.3575e-14 PD=1.11e-06 PS=1.04e-06 $X=145 $Y=90 $D=1
M1 11 A3 10 8 NMOS_VTL L=5e-08 W=4.15e-07 AD=5.81e-14 AS=5.81e-14 PD=1.11e-06 PS=1.11e-06 $X=335 $Y=90 $D=1
M2 12 A2 11 8 NMOS_VTL L=5e-08 W=4.15e-07 AD=5.81e-14 AS=5.81e-14 PD=1.11e-06 PS=1.11e-06 $X=525 $Y=90 $D=1
M3 ZN A1 12 8 NMOS_VTL L=5e-08 W=4.15e-07 AD=4.3575e-14 AS=5.81e-14 PD=1.04e-06 PS=1.11e-06 $X=715 $Y=90 $D=1
M4 ZN A4 VDD 9 PMOS_VTL L=5e-08 W=6.3e-07 AD=8.82e-14 AS=6.615e-14 PD=1.54e-06 PS=1.47e-06 $X=145 $Y=680 $D=0
M5 VDD A3 ZN 9 PMOS_VTL L=5e-08 W=6.3e-07 AD=8.82e-14 AS=8.82e-14 PD=1.54e-06 PS=1.54e-06 $X=335 $Y=680 $D=0
M6 ZN A2 VDD 9 PMOS_VTL L=5e-08 W=6.3e-07 AD=8.82e-14 AS=8.82e-14 PD=1.54e-06 PS=1.54e-06 $X=525 $Y=680 $D=0
M7 VDD A1 ZN 9 PMOS_VTL L=5e-08 W=6.3e-07 AD=6.615e-14 AS=8.82e-14 PD=1.47e-06 PS=1.54e-06 $X=715 $Y=680 $D=0
.ENDS
***************************************
.SUBCKT NOR3_X1 A3 VDD A2 A1 VSS ZN 7 8
** N=10 EP=8 IP=0 FDC=6
M0 ZN A3 VSS 7 NMOS_VTL L=5e-08 W=4.15e-07 AD=5.81e-14 AS=4.3575e-14 PD=1.11e-06 PS=1.04e-06 $X=145 $Y=90 $D=1
M1 VSS A2 ZN 7 NMOS_VTL L=5e-08 W=4.15e-07 AD=5.81e-14 AS=5.81e-14 PD=1.11e-06 PS=1.11e-06 $X=335 $Y=90 $D=1
M2 ZN A1 VSS 7 NMOS_VTL L=5e-08 W=4.15e-07 AD=4.3575e-14 AS=5.81e-14 PD=1.04e-06 PS=1.11e-06 $X=525 $Y=90 $D=1
M3 9 A3 VDD 8 PMOS_VTL L=5e-08 W=6.3e-07 AD=8.82e-14 AS=6.615e-14 PD=1.54e-06 PS=1.47e-06 $X=145 $Y=680 $D=0
M4 10 A2 9 8 PMOS_VTL L=5e-08 W=6.3e-07 AD=8.82e-14 AS=8.82e-14 PD=1.54e-06 PS=1.54e-06 $X=335 $Y=680 $D=0
M5 ZN A1 10 8 PMOS_VTL L=5e-08 W=6.3e-07 AD=6.615e-14 AS=8.82e-14 PD=1.47e-06 PS=1.54e-06 $X=525 $Y=680 $D=0
.ENDS
***************************************
.SUBCKT MGC_via1_1x2_VH
** N=1 EP=0 IP=0 FDC=0
.ENDS
***************************************
.SUBCKT MGC_via1_2x1_HH_0
** N=1 EP=0 IP=0 FDC=0
.ENDS
***************************************
.SUBCKT OAI211_X1 C2 C1 A VDD B ZN VSS 8 9
** N=12 EP=9 IP=0 FDC=8
M0 ZN C2 10 8 NMOS_VTL L=5e-08 W=4.15e-07 AD=5.81e-14 AS=4.3575e-14 PD=1.11e-06 PS=1.04e-06 $X=185 $Y=90 $D=1
M1 10 C1 ZN 8 NMOS_VTL L=5e-08 W=4.15e-07 AD=5.81e-14 AS=5.81e-14 PD=1.11e-06 PS=1.11e-06 $X=375 $Y=90 $D=1
M2 12 A 10 8 NMOS_VTL L=5e-08 W=4.15e-07 AD=5.81e-14 AS=5.81e-14 PD=1.11e-06 PS=1.11e-06 $X=565 $Y=90 $D=1
M3 VSS B 12 8 NMOS_VTL L=5e-08 W=4.15e-07 AD=4.3575e-14 AS=5.81e-14 PD=1.04e-06 PS=1.11e-06 $X=755 $Y=90 $D=1
M4 11 C2 VDD 9 PMOS_VTL L=5e-08 W=6.3e-07 AD=8.82e-14 AS=6.615e-14 PD=1.54e-06 PS=1.47e-06 $X=185 $Y=680 $D=0
M5 ZN C1 11 9 PMOS_VTL L=5e-08 W=6.3e-07 AD=8.82e-14 AS=8.82e-14 PD=1.54e-06 PS=1.54e-06 $X=375 $Y=680 $D=0
M6 VDD A ZN 9 PMOS_VTL L=5e-08 W=6.3e-07 AD=8.82e-14 AS=8.82e-14 PD=1.54e-06 PS=1.54e-06 $X=565 $Y=680 $D=0
M7 ZN B VDD 9 PMOS_VTL L=5e-08 W=6.3e-07 AD=6.615e-14 AS=8.82e-14 PD=1.47e-06 PS=1.54e-06 $X=755 $Y=680 $D=0
.ENDS
***************************************
.SUBCKT MGC_AUTO_NDR_MGC_CLK_NDR_1.0w2.0s_via2_single_MA_north
** N=1 EP=0 IP=0 FDC=0
.ENDS
***************************************
.SUBCKT CLKBUF_X3 A VSS VDD Z 5 6
** N=7 EP=6 IP=0 FDC=8
M0 VSS A 7 5 NMOS_VTL L=5e-08 W=1.95e-07 AD=2.73e-14 AS=2.0475e-14 PD=6.7e-07 PS=6e-07 $X=145 $Y=90 $D=1
M1 Z 7 VSS 5 NMOS_VTL L=5e-08 W=1.95e-07 AD=2.73e-14 AS=2.73e-14 PD=6.7e-07 PS=6.7e-07 $X=335 $Y=90 $D=1
M2 VSS 7 Z 5 NMOS_VTL L=5e-08 W=1.95e-07 AD=2.73e-14 AS=2.73e-14 PD=6.7e-07 PS=6.7e-07 $X=525 $Y=90 $D=1
M3 Z 7 VSS 5 NMOS_VTL L=5e-08 W=1.95e-07 AD=2.0475e-14 AS=2.73e-14 PD=6e-07 PS=6.7e-07 $X=715 $Y=90 $D=1
M4 VDD A 7 6 PMOS_VTL L=5e-08 W=6.3e-07 AD=8.82e-14 AS=6.615e-14 PD=1.54e-06 PS=1.47e-06 $X=145 $Y=680 $D=0
M5 Z 7 VDD 6 PMOS_VTL L=5e-08 W=6.3e-07 AD=8.82e-14 AS=8.82e-14 PD=1.54e-06 PS=1.54e-06 $X=335 $Y=680 $D=0
M6 VDD 7 Z 6 PMOS_VTL L=5e-08 W=6.3e-07 AD=8.82e-14 AS=8.82e-14 PD=1.54e-06 PS=1.54e-06 $X=525 $Y=680 $D=0
M7 Z 7 VDD 6 PMOS_VTL L=5e-08 W=6.3e-07 AD=6.615e-14 AS=8.82e-14 PD=1.47e-06 PS=1.54e-06 $X=715 $Y=680 $D=0
.ENDS
***************************************
.SUBCKT OR4_X1 A1 A2 A3 A4 VSS VDD ZN 8 9
** N=13 EP=9 IP=0 FDC=10
M0 10 A1 VSS 8 NMOS_VTL L=5e-08 W=2.1e-07 AD=2.94e-14 AS=2.205e-14 PD=7e-07 PS=6.3e-07 $X=145 $Y=90 $D=1
M1 VSS A2 10 8 NMOS_VTL L=5e-08 W=2.1e-07 AD=2.94e-14 AS=2.94e-14 PD=7e-07 PS=7e-07 $X=335 $Y=90 $D=1
M2 10 A3 VSS 8 NMOS_VTL L=5e-08 W=2.1e-07 AD=2.94e-14 AS=2.94e-14 PD=7e-07 PS=7e-07 $X=525 $Y=90 $D=1
M3 VSS A4 10 8 NMOS_VTL L=5e-08 W=2.1e-07 AD=4.375e-14 AS=2.94e-14 PD=1.11e-06 PS=7e-07 $X=715 $Y=90 $D=1
M4 ZN 10 VSS 8 NMOS_VTL L=5e-08 W=4.15e-07 AD=4.3575e-14 AS=4.375e-14 PD=1.04e-06 PS=1.11e-06 $X=905 $Y=90 $D=1
M5 11 A1 10 9 PMOS_VTL L=5e-08 W=3.15e-07 AD=4.41e-14 AS=3.3075e-14 PD=9.1e-07 PS=8.4e-07 $X=145 $Y=995 $D=0
M6 12 A2 11 9 PMOS_VTL L=5e-08 W=3.15e-07 AD=4.41e-14 AS=4.41e-14 PD=9.1e-07 PS=9.1e-07 $X=335 $Y=995 $D=0
M7 13 A3 12 9 PMOS_VTL L=5e-08 W=3.15e-07 AD=4.41e-14 AS=4.41e-14 PD=9.1e-07 PS=9.1e-07 $X=525 $Y=995 $D=0
M8 VDD A4 13 9 PMOS_VTL L=5e-08 W=3.15e-07 AD=6.615e-14 AS=4.41e-14 PD=1.54e-06 PS=9.1e-07 $X=715 $Y=995 $D=0
M9 ZN 10 VDD 9 PMOS_VTL L=5e-08 W=6.3e-07 AD=6.615e-14 AS=6.615e-14 PD=1.47e-06 PS=1.54e-06 $X=905 $Y=680 $D=0
.ENDS
***************************************
.SUBCKT AOI21_X1 B2 B1 ZN A VSS VDD 7 8
** N=10 EP=8 IP=0 FDC=6
M0 10 B2 VSS 7 NMOS_VTL L=5e-08 W=4.15e-07 AD=5.81e-14 AS=4.3575e-14 PD=1.11e-06 PS=1.04e-06 $X=185 $Y=90 $D=1
M1 ZN B1 10 7 NMOS_VTL L=5e-08 W=4.15e-07 AD=5.81e-14 AS=5.81e-14 PD=1.11e-06 PS=1.11e-06 $X=375 $Y=90 $D=1
M2 VSS A ZN 7 NMOS_VTL L=5e-08 W=4.15e-07 AD=4.3575e-14 AS=5.81e-14 PD=1.04e-06 PS=1.11e-06 $X=565 $Y=90 $D=1
M3 ZN B2 9 8 PMOS_VTL L=5e-08 W=6.3e-07 AD=8.82e-14 AS=6.615e-14 PD=1.54e-06 PS=1.47e-06 $X=185 $Y=680 $D=0
M4 9 B1 ZN 8 PMOS_VTL L=5e-08 W=6.3e-07 AD=8.82e-14 AS=8.82e-14 PD=1.54e-06 PS=1.54e-06 $X=375 $Y=680 $D=0
M5 VDD A 9 8 PMOS_VTL L=5e-08 W=6.3e-07 AD=6.615e-14 AS=8.82e-14 PD=1.47e-06 PS=1.54e-06 $X=565 $Y=680 $D=0
.ENDS
***************************************
.SUBCKT MGC_via2_2x1_VH
** N=1 EP=0 IP=0 FDC=0
.ENDS
***************************************
.SUBCKT AOI22_X1 B2 B1 VDD A1 ZN A2 VSS 8 9
** N=12 EP=9 IP=0 FDC=8
M0 11 B2 VSS 8 NMOS_VTL L=5e-08 W=4.15e-07 AD=5.81e-14 AS=4.3575e-14 PD=1.11e-06 PS=1.04e-06 $X=160 $Y=90 $D=1
M1 ZN B1 11 8 NMOS_VTL L=5e-08 W=4.15e-07 AD=5.81e-14 AS=5.81e-14 PD=1.11e-06 PS=1.11e-06 $X=350 $Y=90 $D=1
M2 12 A1 ZN 8 NMOS_VTL L=5e-08 W=4.15e-07 AD=5.81e-14 AS=5.81e-14 PD=1.11e-06 PS=1.11e-06 $X=540 $Y=90 $D=1
M3 VSS A2 12 8 NMOS_VTL L=5e-08 W=4.15e-07 AD=4.3575e-14 AS=5.81e-14 PD=1.04e-06 PS=1.11e-06 $X=730 $Y=90 $D=1
M4 VDD B2 10 9 PMOS_VTL L=5e-08 W=6.3e-07 AD=8.82e-14 AS=6.615e-14 PD=1.54e-06 PS=1.47e-06 $X=160 $Y=680 $D=0
M5 10 B1 VDD 9 PMOS_VTL L=5e-08 W=6.3e-07 AD=8.82e-14 AS=8.82e-14 PD=1.54e-06 PS=1.54e-06 $X=350 $Y=680 $D=0
M6 ZN A1 10 9 PMOS_VTL L=5e-08 W=6.3e-07 AD=8.82e-14 AS=8.82e-14 PD=1.54e-06 PS=1.54e-06 $X=540 $Y=680 $D=0
M7 10 A2 ZN 9 PMOS_VTL L=5e-08 W=6.3e-07 AD=6.615e-14 AS=8.82e-14 PD=1.47e-06 PS=1.54e-06 $X=730 $Y=680 $D=0
.ENDS
***************************************
.SUBCKT OAI22_X1 B2 B1 VSS ZN A1 A2 VDD 8 9
** N=12 EP=9 IP=0 FDC=8
M0 VSS B2 10 8 NMOS_VTL L=5e-08 W=4.15e-07 AD=5.81e-14 AS=4.3575e-14 PD=1.11e-06 PS=1.04e-06 $X=160 $Y=90 $D=1
M1 10 B1 VSS 8 NMOS_VTL L=5e-08 W=4.15e-07 AD=5.81e-14 AS=5.81e-14 PD=1.11e-06 PS=1.11e-06 $X=350 $Y=90 $D=1
M2 ZN A1 10 8 NMOS_VTL L=5e-08 W=4.15e-07 AD=5.81e-14 AS=5.81e-14 PD=1.11e-06 PS=1.11e-06 $X=540 $Y=90 $D=1
M3 10 A2 ZN 8 NMOS_VTL L=5e-08 W=4.15e-07 AD=4.3575e-14 AS=5.81e-14 PD=1.04e-06 PS=1.11e-06 $X=730 $Y=90 $D=1
M4 11 B2 VDD 9 PMOS_VTL L=5e-08 W=6.3e-07 AD=8.82e-14 AS=6.615e-14 PD=1.54e-06 PS=1.47e-06 $X=160 $Y=680 $D=0
M5 ZN B1 11 9 PMOS_VTL L=5e-08 W=6.3e-07 AD=8.82e-14 AS=8.82e-14 PD=1.54e-06 PS=1.54e-06 $X=350 $Y=680 $D=0
M6 12 A1 ZN 9 PMOS_VTL L=5e-08 W=6.3e-07 AD=8.82e-14 AS=8.82e-14 PD=1.54e-06 PS=1.54e-06 $X=540 $Y=680 $D=0
M7 VDD A2 12 9 PMOS_VTL L=5e-08 W=6.3e-07 AD=6.615e-14 AS=8.82e-14 PD=1.47e-06 PS=1.54e-06 $X=730 $Y=680 $D=0
.ENDS
***************************************
.SUBCKT OAI221_X1 B2 B1 VSS A C2 VDD C1 ZN 9 10
** N=14 EP=10 IP=0 FDC=10
M0 VSS B2 11 9 NMOS_VTL L=5e-08 W=4.15e-07 AD=5.81e-14 AS=4.3575e-14 PD=1.11e-06 PS=1.04e-06 $X=145 $Y=90 $D=1
M1 11 B1 VSS 9 NMOS_VTL L=5e-08 W=4.15e-07 AD=5.81e-14 AS=5.81e-14 PD=1.11e-06 PS=1.11e-06 $X=335 $Y=90 $D=1
M2 12 A 11 9 NMOS_VTL L=5e-08 W=4.15e-07 AD=5.81e-14 AS=5.81e-14 PD=1.11e-06 PS=1.11e-06 $X=525 $Y=90 $D=1
M3 ZN C2 12 9 NMOS_VTL L=5e-08 W=4.15e-07 AD=5.81e-14 AS=5.81e-14 PD=1.11e-06 PS=1.11e-06 $X=715 $Y=90 $D=1
M4 12 C1 ZN 9 NMOS_VTL L=5e-08 W=4.15e-07 AD=4.3575e-14 AS=5.81e-14 PD=1.04e-06 PS=1.11e-06 $X=905 $Y=90 $D=1
M5 13 B2 VDD 10 PMOS_VTL L=5e-08 W=6.3e-07 AD=8.82e-14 AS=6.615e-14 PD=1.54e-06 PS=1.47e-06 $X=145 $Y=680 $D=0
M6 ZN B1 13 10 PMOS_VTL L=5e-08 W=6.3e-07 AD=8.82e-14 AS=8.82e-14 PD=1.54e-06 PS=1.54e-06 $X=335 $Y=680 $D=0
M7 VDD A ZN 10 PMOS_VTL L=5e-08 W=6.3e-07 AD=8.82e-14 AS=8.82e-14 PD=1.54e-06 PS=1.54e-06 $X=525 $Y=680 $D=0
M8 14 C2 VDD 10 PMOS_VTL L=5e-08 W=6.3e-07 AD=8.82e-14 AS=8.82e-14 PD=1.54e-06 PS=1.54e-06 $X=715 $Y=680 $D=0
M9 ZN C1 14 10 PMOS_VTL L=5e-08 W=6.3e-07 AD=6.615e-14 AS=8.82e-14 PD=1.47e-06 PS=1.54e-06 $X=905 $Y=680 $D=0
.ENDS
***************************************
.SUBCKT MGC_via1_2x1_HV_1
** N=1 EP=0 IP=0 FDC=0
.ENDS
***************************************
.SUBCKT OAI21_X1 B2 B1 ZN A VSS VDD 7 8
** N=10 EP=8 IP=0 FDC=6
M0 ZN B2 9 7 NMOS_VTL L=5e-08 W=4.15e-07 AD=5.81e-14 AS=4.3575e-14 PD=1.11e-06 PS=1.04e-06 $X=170 $Y=90 $D=1
M1 9 B1 ZN 7 NMOS_VTL L=5e-08 W=4.15e-07 AD=5.81e-14 AS=5.81e-14 PD=1.11e-06 PS=1.11e-06 $X=360 $Y=90 $D=1
M2 VSS A 9 7 NMOS_VTL L=5e-08 W=4.15e-07 AD=4.3575e-14 AS=5.81e-14 PD=1.04e-06 PS=1.11e-06 $X=550 $Y=90 $D=1
M3 10 B2 VDD 8 PMOS_VTL L=5e-08 W=6.3e-07 AD=8.82e-14 AS=6.615e-14 PD=1.54e-06 PS=1.47e-06 $X=170 $Y=680 $D=0
M4 ZN B1 10 8 PMOS_VTL L=5e-08 W=6.3e-07 AD=8.82e-14 AS=8.82e-14 PD=1.54e-06 PS=1.54e-06 $X=360 $Y=680 $D=0
M5 VDD A ZN 8 PMOS_VTL L=5e-08 W=6.3e-07 AD=6.615e-14 AS=8.82e-14 PD=1.47e-06 PS=1.54e-06 $X=550 $Y=680 $D=0
.ENDS
***************************************
.SUBCKT NAND2_X1 A2 VSS A1 ZN VDD 6 7
** N=8 EP=7 IP=0 FDC=4
M0 8 A2 VSS 6 NMOS_VTL L=5e-08 W=4.15e-07 AD=5.81e-14 AS=4.3575e-14 PD=1.11e-06 PS=1.04e-06 $X=160 $Y=90 $D=1
M1 ZN A1 8 6 NMOS_VTL L=5e-08 W=4.15e-07 AD=4.3575e-14 AS=5.81e-14 PD=1.04e-06 PS=1.11e-06 $X=350 $Y=90 $D=1
M2 ZN A2 VDD 7 PMOS_VTL L=5e-08 W=6.3e-07 AD=8.82e-14 AS=6.615e-14 PD=1.54e-06 PS=1.47e-06 $X=160 $Y=680 $D=0
M3 VDD A1 ZN 7 PMOS_VTL L=5e-08 W=6.3e-07 AD=6.615e-14 AS=8.82e-14 PD=1.47e-06 PS=1.54e-06 $X=350 $Y=680 $D=0
.ENDS
***************************************
.SUBCKT NOR2_X1 A2 VDD A1 ZN VSS 6 7
** N=8 EP=7 IP=0 FDC=4
M0 ZN A2 VSS 6 NMOS_VTL L=5e-08 W=4.15e-07 AD=5.81e-14 AS=4.3575e-14 PD=1.11e-06 PS=1.04e-06 $X=160 $Y=90 $D=1
M1 VSS A1 ZN 6 NMOS_VTL L=5e-08 W=4.15e-07 AD=4.3575e-14 AS=5.81e-14 PD=1.04e-06 PS=1.11e-06 $X=350 $Y=90 $D=1
M2 8 A2 VDD 7 PMOS_VTL L=5e-08 W=6.3e-07 AD=8.82e-14 AS=6.615e-14 PD=1.54e-06 PS=1.47e-06 $X=160 $Y=680 $D=0
M3 ZN A1 8 7 PMOS_VTL L=5e-08 W=6.3e-07 AD=6.615e-14 AS=8.82e-14 PD=1.47e-06 PS=1.54e-06 $X=350 $Y=680 $D=0
.ENDS
***************************************
.SUBCKT ICV_6 1 2 3 4 5 6 7 8 9 10 11 12 13 14 15 16 17 18 19 20
+ 21 22 23 24 25 26 27 28 29 30 31 32 33 34 35 36 37 38 39 40
+ 41 42 43 44 45 46 47 48 49 50 51 52 53 54 55 56 57 58 59 60
+ 61 62 63 64 65 66 67 68 69 70 71 72 73 74 75 76 77 78 79 80
+ 81 82 83 84 85 86 87 88 89 90 91 92 93 94 95 96 97 98 99 100
+ 101 102 103 104 105 106 107 108 109 110 111 112 113 114 115 116 117 118 119 120
+ 121 122 123 124 125 126 127 128 129 130 131 132 133 134 135 136 137 138 139 140
+ 142
** N=247 EP=141 IP=3459 FDC=2148
X1475 65 1 58 57 201 241 244 AND2_X1 $T=1000 62600 1 0 $X=885 $Y=61085
X1476 76 143 58 57 203 242 245 AND2_X1 $T=6320 65400 1 180 $X=5445 $Y=65285
X1477 76 144 58 57 216 241 247 AND2_X1 $T=6130 62600 0 0 $X=6015 $Y=62485
X1478 76 145 58 57 231 242 245 AND2_X1 $T=7080 65400 1 180 $X=6205 $Y=65285
X1479 63 5 58 57 204 242 245 AND2_X1 $T=8220 65400 0 0 $X=8105 $Y=65285
X1480 76 146 58 57 207 242 245 AND2_X1 $T=10500 65400 0 0 $X=10385 $Y=65285
X1481 76 150 58 57 217 242 247 AND2_X1 $T=12780 65400 1 0 $X=12665 $Y=63885
X1482 65 12 58 57 151 243 245 AND2_X1 $T=13920 68200 0 180 $X=13045 $Y=66685
X1483 65 13 58 57 218 243 246 AND2_X1 $T=15820 68200 1 180 $X=14945 $Y=68085
X1484 65 15 58 57 219 243 246 AND2_X1 $T=16960 68200 0 0 $X=16845 $Y=68085
X1485 63 17 58 57 209 243 246 AND2_X1 $T=19620 68200 1 180 $X=18745 $Y=68085
X1486 63 18 58 57 233 243 246 AND2_X1 $T=20380 68200 1 180 $X=19505 $Y=68085
X1487 63 22 58 57 210 243 246 AND2_X1 $T=21900 68200 0 0 $X=21785 $Y=68085
X1488 65 26 58 57 220 243 246 AND2_X1 $T=27790 68200 1 180 $X=26915 $Y=68085
X1489 63 27 58 57 221 243 246 AND2_X1 $T=27790 68200 0 0 $X=27675 $Y=68085
X1490 65 29 58 57 211 243 246 AND2_X1 $T=29880 68200 0 0 $X=29765 $Y=68085
X1491 65 34 58 57 160 243 245 AND2_X1 $T=33490 68200 0 180 $X=32615 $Y=66685
X1492 65 37 58 57 162 243 246 AND2_X1 $T=33870 68200 0 0 $X=33755 $Y=68085
X1493 63 39 58 57 235 243 246 AND2_X1 $T=37290 68200 1 180 $X=36415 $Y=68085
X1494 63 41 58 57 189 243 246 AND2_X1 $T=38620 68200 0 0 $X=38505 $Y=68085
X1495 63 42 58 57 222 243 246 AND2_X1 $T=41660 68200 1 180 $X=40785 $Y=68085
X1496 63 43 58 57 191 243 246 AND2_X1 $T=41660 68200 0 0 $X=41545 $Y=68085
X1497 63 44 58 57 224 243 245 AND2_X1 $T=44320 68200 1 0 $X=44205 $Y=66685
X1498 65 45 58 57 223 243 246 AND2_X1 $T=44320 68200 0 0 $X=44205 $Y=68085
X1499 63 47 58 57 225 243 246 AND2_X1 $T=47550 68200 0 0 $X=47435 $Y=68085
X1500 65 103 58 57 226 243 246 AND2_X1 $T=50400 68200 1 180 $X=49525 $Y=68085
X1501 65 49 58 57 198 242 247 AND2_X1 $T=51920 65400 0 180 $X=51045 $Y=63885
X1502 65 50 58 57 212 243 246 AND2_X1 $T=51730 68200 0 0 $X=51615 $Y=68085
X1503 65 51 58 57 227 242 245 AND2_X1 $T=51920 65400 0 0 $X=51805 $Y=65285
X1504 65 52 58 57 193 242 247 AND2_X1 $T=54200 65400 0 180 $X=53325 $Y=63885
X1505 65 53 58 57 170 243 245 AND2_X1 $T=54580 68200 0 180 $X=53705 $Y=66685
X1506 63 54 58 57 228 243 246 AND2_X1 $T=57430 68200 1 180 $X=56555 $Y=68085
X1507 63 55 58 57 194 243 246 AND2_X1 $T=58950 68200 0 0 $X=58835 $Y=68085
X1508 76 200 58 57 215 242 245 AND2_X1 $T=59330 65400 0 0 $X=59215 $Y=65285
X1509 76 171 58 57 175 242 245 AND2_X1 $T=60090 65400 0 0 $X=59975 $Y=65285
X1510 76 172 58 57 229 241 247 AND2_X1 $T=62180 62600 1 180 $X=61305 $Y=62485
X1511 76 174 58 57 195 241 247 AND2_X1 $T=63890 62600 1 180 $X=63015 $Y=62485
X1512 76 173 58 57 199 242 247 AND2_X1 $T=63130 65400 1 0 $X=63015 $Y=63885
X1513 76 176 58 57 196 241 244 AND2_X1 $T=63890 62600 1 0 $X=63775 $Y=61085
X1514 76 177 58 57 230 241 247 AND2_X1 $T=63890 62600 0 0 $X=63775 $Y=62485
X1515 63 56 58 57 236 142 244 AND2_X1 $T=67120 59800 1 180 $X=66245 $Y=59685
X1527 201 3 58 57 152 241 247 DFF_X1 $T=1000 62600 0 0 $X=885 $Y=62485
X1528 216 4 58 57 113 242 245 DFF_X1 $T=1000 65400 0 0 $X=885 $Y=65285
X1529 203 4 58 57 128 243 245 DFF_X1 $T=1000 68200 1 0 $X=885 $Y=66685
X1530 231 4 58 57 114 243 245 DFF_X1 $T=7460 68200 0 180 $X=4115 $Y=66685
X1531 207 4 58 57 73 243 246 DFF_X1 $T=7270 68200 0 0 $X=7155 $Y=68085
X1532 204 7 58 57 16 242 247 DFF_X1 $T=7840 65400 1 0 $X=7725 $Y=63885
X1533 217 4 58 57 129 243 246 DFF_X1 $T=10500 68200 0 0 $X=10385 $Y=68085
X1534 151 3 58 57 153 242 245 DFF_X1 $T=14490 65400 1 180 $X=11145 $Y=65285
X1535 218 3 58 57 154 243 245 DFF_X1 $T=13920 68200 1 0 $X=13805 $Y=66685
X1536 219 3 58 57 155 242 245 DFF_X1 $T=14490 65400 0 0 $X=14375 $Y=65285
X1537 233 7 58 57 156 243 245 DFF_X1 $T=20380 68200 0 180 $X=17035 $Y=66685
X1538 209 7 58 57 24 242 247 DFF_X1 $T=21140 65400 1 0 $X=21025 $Y=63885
X1539 210 7 58 57 25 243 246 DFF_X1 $T=22660 68200 0 0 $X=22545 $Y=68085
X1540 220 3 58 57 158 242 245 DFF_X1 $T=24370 65400 0 0 $X=24255 $Y=65285
X1541 221 7 58 57 159 242 245 DFF_X1 $T=27600 65400 0 0 $X=27485 $Y=65285
X1542 160 3 58 57 161 242 247 DFF_X1 $T=30450 65400 1 0 $X=30335 $Y=63885
X1543 211 3 58 57 31 243 246 DFF_X1 $T=30640 68200 0 0 $X=30525 $Y=68085
X1544 235 7 58 57 96 243 245 DFF_X1 $T=36720 68200 0 180 $X=33375 $Y=66685
X1545 162 3 58 57 36 242 245 DFF_X1 $T=34250 65400 0 0 $X=34135 $Y=65285
X1546 222 7 58 57 166 243 245 DFF_X1 $T=36720 68200 1 0 $X=36605 $Y=66685
X1547 189 7 58 57 38 242 247 DFF_X1 $T=38050 65400 1 0 $X=37935 $Y=63885
X1548 191 7 58 57 167 242 247 DFF_X1 $T=41280 65400 1 0 $X=41165 $Y=63885
X1549 224 7 58 57 168 242 245 DFF_X1 $T=44700 65400 0 0 $X=44585 $Y=65285
X1550 223 3 58 57 163 243 245 DFF_X1 $T=45080 68200 1 0 $X=44965 $Y=66685
X1551 225 7 58 57 169 242 247 DFF_X1 $T=47930 65400 1 0 $X=47815 $Y=63885
X1552 226 3 58 57 164 243 245 DFF_X1 $T=48310 68200 1 0 $X=48195 $Y=66685
X1553 198 3 58 57 86 142 244 DFF_X1 $T=50400 59800 0 0 $X=50285 $Y=59685
X1554 227 3 58 57 28 241 247 DFF_X1 $T=50590 62600 0 0 $X=50475 $Y=62485
X1555 193 3 58 57 40 241 244 DFF_X1 $T=52490 62600 1 0 $X=52375 $Y=61085
X1556 212 3 58 57 165 243 246 DFF_X1 $T=52490 68200 0 0 $X=52375 $Y=68085
X1557 170 3 58 57 35 242 245 DFF_X1 $T=52680 65400 0 0 $X=52565 $Y=65285
X1558 199 4 58 57 110 241 244 DFF_X1 $T=60660 62600 0 180 $X=57315 $Y=61085
X1559 215 4 58 57 130 243 246 DFF_X1 $T=59710 68200 0 0 $X=59595 $Y=68085
X1560 228 7 58 57 81 242 247 DFF_X1 $T=59900 65400 1 0 $X=59785 $Y=63885
X1561 194 7 58 57 48 241 244 DFF_X1 $T=60660 62600 1 0 $X=60545 $Y=61085
X1562 229 4 58 57 111 242 245 DFF_X1 $T=62940 65400 0 0 $X=62825 $Y=65285
X1563 175 4 58 57 67 243 246 DFF_X1 $T=62940 68200 0 0 $X=62825 $Y=68085
X1564 236 7 58 57 87 142 244 DFF_X1 $T=66360 59800 1 180 $X=63015 $Y=59685
X1565 196 4 58 57 88 241 244 DFF_X1 $T=66170 62600 1 0 $X=66055 $Y=61085
X1566 195 4 58 57 101 241 247 DFF_X1 $T=66170 62600 0 0 $X=66055 $Y=62485
X1567 230 4 58 57 102 242 245 DFF_X1 $T=66170 65400 0 0 $X=66055 $Y=65285
X1768 152 58 57 183 241 247 INV_X1 $T=8220 62600 0 0 $X=8105 $Y=62485
X1769 206 58 57 143 241 247 INV_X1 $T=11070 62600 0 0 $X=10955 $Y=62485
X1770 186 58 57 145 242 247 INV_X1 $T=13540 65400 1 0 $X=13425 $Y=63885
X1771 208 58 57 146 241 247 INV_X1 $T=13730 62600 0 0 $X=13615 $Y=62485
X1772 179 58 57 150 242 247 INV_X1 $T=19240 65400 1 0 $X=19125 $Y=63885
X1773 108 58 57 188 142 244 INV_X1 $T=33110 59800 1 180 $X=32615 $Y=59685